sQC_Substrate__STK536739_rank_0
     RDKit          3D

 23 26  0  0  0  0  0  0  0  0999 V2000
   43.4951   46.8633   61.5211 C   0  0  0  0  0  0  0  0  0  1  0  0
   43.0132   46.2294   60.2840 N   0  0  0  0  0  0  0  0  0  2  0  0
   41.7253   46.7902   59.9666 C   0  0  0  0  0  0  0  0  0  3  0  0
   40.5848   46.0044   60.6211 C   0  0  0  0  0  0  0  0  0  4  0  0
   40.5746   44.6935   59.8254 C   0  0  0  0  0  0  0  0  0  5  0  0
   41.8549   44.1470   59.8012 C   0  0  0  0  0  0  0  0  0  6  0  0
   42.9854   44.8067   60.4723 C   0  0  0  0  0  0  0  0  0  7  0  0
   41.6360   42.6708   58.8542 S   0  0  0  0  0  0  0  0  0  8  0  0
   39.9124   42.8589   58.5547 C   0  0  0  0  0  0  0  0  0  9  0  0
   39.6042   44.0191   59.1845 C   0  0  0  0  0  0  0  0  0 10  0  0
   38.1657   44.4074   59.0966 C   0  0  0  0  0  0  0  0  0 11  0  0
   37.7845   45.4820   59.6563 O   0  0  0  0  0  0  0  0  0 12  0  0
   37.2752   43.5801   58.4017 N   0  0  0  0  0  0  0  0  0 13  0  0
   37.7258   42.6429   57.3984 C   0  0  2  0  0  0  0  0  0 14  0  0
   38.9744   42.0561   57.8305 N   0  0  0  0  0  0  0  0  0 15  0  0
   37.8522   43.3780   56.1249 C   0  0  0  0  0  0  0  0  0 16  0  0
   38.8679   43.2156   55.2323 C   0  0  0  0  0  0  0  0  0 17  0  0
   38.9028   43.9529   54.0584 C   0  0  0  0  0  0  0  0  0 18  0  0
   37.9173   44.8743   53.7488 C   0  0  0  0  0  0  0  0  0 19  0  0
   36.8878   45.0376   54.6554 C   0  0  0  0  0  0  0  0  0 20  0  0
   36.8596   44.3009   55.8209 C   0  0  0  0  0  0  0  0  0 21  0  0
   35.8981   45.9669   54.3384 O   0  0  0  0  0  0  0  0  0 22  0  0
   37.9390   45.6197   52.5771 O   0  0  0  0  0  0  0  0  0 23  0  0
  1  2  1  1
  3  2  1  6
  3  4  1  0
  4  5  1  1
  5  6  2  0
  6  7  1  0
  7  2  1  1
  6  8  1  0
  8  9  1  0
  9 10  2  0
  5 10  1  0
 10 11  1  0
 11 12  2  0
 11 13  1  0
 13 14  1  0
 14 15  1  0
  9 15  1  0
 16 17  2  0
 17 18  1  0
 18 19  2  0
 19 20  1  0
 20 21  2  0
 16 21  1  0
 20 22  1  0
 19 23  1  0
 14 16  1  6
M  END
>  <fitscore>  (1) 
0.411796

$$$$
sQC_Substrate__STK536739_rank_1
     RDKit          3D

 23 26  0  0  0  0  0  0  0  0999 V2000
   43.3889   44.0911   62.8055 C   0  0  0  0  0  0  0  0  0  1  0  0
   42.9537   44.0288   61.4015 N   0  0  0  0  0  0  0  0  0  2  0  0
   42.0475   45.1229   61.1653 C   0  0  0  0  0  0  0  0  0  3  0  0
   40.5959   44.7348   61.4630 C   0  0  0  0  0  0  0  0  0  4  0  0
   40.2573   43.7773   60.3140 C   0  0  0  0  0  0  0  0  0  5  0  0
   41.2270   42.7818   60.2288 C   0  0  0  0  0  0  0  0  0  6  0  0
   42.3703   42.7409   61.1535 C   0  0  0  0  0  0  0  0  0  7  0  0
   40.6668   41.8002   58.8701 S   0  0  0  0  0  0  0  0  0  8  0  0
   39.2237   42.7385   58.5052 C   0  0  0  0  0  0  0  0  0  9  0  0
   39.2487   43.7328   59.4263 C   0  0  0  0  0  0  0  0  0 10  0  0
   38.0984   44.6803   59.3449 C   0  0  0  0  0  0  0  0  0 11  0  0
   38.0388   45.6460   60.1680 O   0  0  0  0  0  0  0  0  0 12  0  0
   37.1166   44.4820   58.3666 N   0  0  0  0  0  0  0  0  0 13  0  0
   37.3744   43.7170   57.1682 C   0  0  2  0  0  0  0  0  0 14  0  0
   38.2133   42.5881   57.5025 N   0  0  0  0  0  0  0  0  0 15  0  0
   38.0023   44.6226   56.1864 C   0  0  0  0  0  0  0  0  0 16  0  0
   39.3147   44.9864   56.1945 C   0  0  0  0  0  0  0  0  0 17  0  0
   39.8167   45.8451   55.2283 C   0  0  0  0  0  0  0  0  0 18  0  0
   39.0133   46.3622   54.2266 C   0  0  0  0  0  0  0  0  0 19  0  0
   37.6824   45.9919   54.2201 C   0  0  0  0  0  0  0  0  0 20  0  0
   37.1900   45.1375   55.1843 C   0  0  0  0  0  0  0  0  0 21  0  0
   36.8780   46.5157   53.2091 O   0  0  0  0  0  0  0  0  0 22  0  0
   39.5020   47.2230   53.2524 O   0  0  0  0  0  0  0  0  0 23  0  0
  1  2  1  1
  3  2  1  6
  3  4  1  0
  4  5  1  1
  5  6  2  0
  6  7  1  0
  7  2  1  1
  6  8  1  0
  8  9  1  0
  9 10  2  0
  5 10  1  0
 10 11  1  0
 11 12  2  0
 11 13  1  0
 13 14  1  0
 14 15  1  0
  9 15  1  0
 16 17  2  0
 17 18  1  0
 18 19  2  0
 19 20  1  0
 20 21  2  0
 16 21  1  0
 20 22  1  0
 19 23  1  0
 14 16  1  6
M  END
>  <fitscore>  (2) 
0.344865

$$$$
sQC_Substrate__STK536739_rank_2
     RDKit          3D

 23 26  0  0  0  0  0  0  0  0999 V2000
   43.4510   45.3417   62.4496 C   0  0  0  0  0  0  0  0  0  1  0  0
   42.9890   44.9649   61.1046 N   0  0  0  0  0  0  0  0  0  2  0  0
   41.8576   45.7917   60.7725 C   0  0  0  0  0  0  0  0  0  3  0  0
   40.5378   45.1601   61.2258 C   0  0  0  0  0  0  0  0  0  4  0  0
   40.3750   43.9812   60.2587 C   0  0  0  0  0  0  0  0  0  5  0  0
   41.5350   43.2113   60.2547 C   0  0  0  0  0  0  0  0  0  6  0  0
   42.6926   43.5605   61.0925 C   0  0  0  0  0  0  0  0  0  7  0  0
   41.1537   41.9290   59.0998 S   0  0  0  0  0  0  0  0  0  8  0  0
   39.5282   42.4721   58.7017 C   0  0  0  0  0  0  0  0  0  9  0  0
   39.3688   43.5840   59.4606 C   0  0  0  0  0  0  0  0  0 10  0  0
   38.0370   44.2430   59.3202 C   0  0  0  0  0  0  0  0  0 11  0  0
   37.7979   45.2938   59.9927 O   0  0  0  0  0  0  0  0  0 12  0  0
   37.0873   43.6884   58.4537 N   0  0  0  0  0  0  0  0  0 13  0  0
   37.4622   42.8126   57.3673 C   0  0  2  0  0  0  0  0  0 14  0  0
   38.5391   41.9538   57.8060 N   0  0  0  0  0  0  0  0  0 15  0  0
   37.8407   43.6604   56.2201 C   0  0  0  0  0  0  0  0  0 16  0  0
   39.1214   43.9355   55.8473 C   0  0  0  0  0  0  0  0  0 17  0  0
   39.3809   44.7452   54.7519 C   0  0  0  0  0  0  0  0  0 18  0  0
   38.3601   45.3012   54.0003 C   0  0  0  0  0  0  0  0  0 19  0  0
   37.0617   45.0210   54.3800 C   0  0  0  0  0  0  0  0  0 20  0  0
   36.8110   44.2149   55.4706 C   0  0  0  0  0  0  0  0  0 21  0  0
   36.0376   45.5835   53.6195 O   0  0  0  0  0  0  0  0  0 22  0  0
   38.6048   46.1138   52.9009 O   0  0  0  0  0  0  0  0  0 23  0  0
  1  2  1  1
  3  2  1  6
  3  4  1  0
  4  5  1  1
  5  6  2  0
  6  7  1  0
  7  2  1  1
  6  8  1  0
  8  9  1  0
  9 10  2  0
  5 10  1  0
 10 11  1  0
 11 12  2  0
 11 13  1  0
 13 14  1  0
 14 15  1  0
  9 15  1  0
 16 17  2  0
 17 18  1  0
 18 19  2  0
 19 20  1  0
 20 21  2  0
 16 21  1  0
 20 22  1  0
 19 23  1  0
 14 16  1  6
M  END
>  <fitscore>  (3) 
0.332531

$$$$
sQC_Substrate__STK536739_rank_3
     RDKit          3D

 23 26  0  0  0  0  0  0  0  0999 V2000
   43.0782   44.7356   62.9794 C   0  0  0  0  0  0  0  0  0  1  0  0
   42.7161   44.5593   61.5644 N   0  0  0  0  0  0  0  0  0  2  0  0
   41.5697   45.3867   61.2898 C   0  0  0  0  0  0  0  0  0  3  0  0
   40.2556   44.6439   61.5503 C   0  0  0  0  0  0  0  0  0  4  0  0
   40.2063   43.6274   60.4031 C   0  0  0  0  0  0  0  0  0  5  0  0
   41.3988   42.9104   60.3573 C   0  0  0  0  0  0  0  0  0  6  0  0
   42.4863   43.1646   61.3146 C   0  0  0  0  0  0  0  0  0  7  0  0
   41.1477   41.8135   58.9944 S   0  0  0  0  0  0  0  0  0  8  0  0
   39.5258   42.3533   58.5776 C   0  0  0  0  0  0  0  0  0  9  0  0
   39.2696   43.3250   59.4875 C   0  0  0  0  0  0  0  0  0 10  0  0
   37.9196   43.9491   59.3624 C   0  0  0  0  0  0  0  0  0 11  0  0
   37.5919   44.8712   60.1723 O   0  0  0  0  0  0  0  0  0 12  0  0
   37.0506   43.5042   58.3588 N   0  0  0  0  0  0  0  0  0 13  0  0
   37.5305   42.8251   57.1771 C   0  0  2  0  0  0  0  0  0 14  0  0
   38.6177   41.9475   57.5483 N   0  0  0  0  0  0  0  0  0 15  0  0
   37.9380   43.8566   56.2033 C   0  0  0  0  0  0  0  0  0 16  0  0
   39.1732   44.4275   56.1484 C   0  0  0  0  0  0  0  0  0 17  0  0
   39.4652   45.3918   55.1956 C   0  0  0  0  0  0  0  0  0 18  0  0
   38.5234   45.8093   54.2711 C   0  0  0  0  0  0  0  0  0 19  0  0
   37.2709   45.2290   54.3284 C   0  0  0  0  0  0  0  0  0 20  0  0
   36.9876   44.2706   55.2788 C   0  0  0  0  0  0  0  0  0 21  0  0
   36.3264   45.6533   53.3949 O   0  0  0  0  0  0  0  0  0 22  0  0
   38.8013   46.7739   53.3112 O   0  0  0  0  0  0  0  0  0 23  0  0
  1  2  1  1
  3  2  1  6
  3  4  1  0
  4  5  1  1
  5  6  2  0
  6  7  1  0
  7  2  1  1
  6  8  1  0
  8  9  1  0
  9 10  2  0
  5 10  1  0
 10 11  1  0
 11 12  2  0
 11 13  1  0
 13 14  1  0
 14 15  1  0
  9 15  1  0
 16 17  2  0
 17 18  1  0
 18 19  2  0
 19 20  1  0
 20 21  2  0
 16 21  1  0
 20 22  1  0
 19 23  1  0
 14 16  1  6
M  END
>  <fitscore>  (4) 
0.327852

$$$$
sQC_Substrate__STK536739_rank_4
     RDKit          3D

 23 26  0  0  0  0  0  0  0  0999 V2000
   43.9992   43.8766   62.2283 C   0  0  0  0  0  0  0  0  0  1  0  0
   43.3892   43.6854   60.9033 N   0  0  0  0  0  0  0  0  0  2  0  0
   42.6777   44.8897   60.5606 C   0  0  0  0  0  0  0  0  0  3  0  0
   41.2278   44.8547   61.0534 C   0  0  0  0  0  0  0  0  0  4  0  0
   40.5790   43.8182   60.1280 C   0  0  0  0  0  0  0  0  0  5  0  0
   41.3306   42.6464   60.1325 C   0  0  0  0  0  0  0  0  0  6  0  0
   42.5525   42.5197   60.9416 C   0  0  0  0  0  0  0  0  0  7  0  0
   40.4352   41.5987   59.0260 S   0  0  0  0  0  0  0  0  0  8  0  0
   39.1556   42.7409   58.6338 C   0  0  0  0  0  0  0  0  0  9  0  0
   39.4772   43.8409   59.3579 C   0  0  0  0  0  0  0  0  0 10  0  0
   38.5199   44.9770   59.2152 C   0  0  0  0  0  0  0  0  0 11  0  0
   38.7416   46.0510   59.8562 O   0  0  0  0  0  0  0  0  0 12  0  0
   37.4048   44.8313   58.3812 N   0  0  0  0  0  0  0  0  0 13  0  0
   37.3667   43.8526   57.3188 C   0  0  2  0  0  0  0  0  0 14  0  0
   38.0184   42.6436   57.7700 N   0  0  0  0  0  0  0  0  0 15  0  0
   38.0239   44.4479   56.1391 C   0  0  0  0  0  0  0  0  0 16  0  0
   39.3471   44.3226   55.8418 C   0  0  0  0  0  0  0  0  0 17  0  0
   39.8769   44.9192   54.7077 C   0  0  0  0  0  0  0  0  0 18  0  0
   39.0914   45.6587   53.8404 C   0  0  0  0  0  0  0  0  0 19  0  0
   37.7494   45.7846   54.1437 C   0  0  0  0  0  0  0  0  0 20  0  0
   37.2293   45.1885   55.2733 C   0  0  0  0  0  0  0  0  0 21  0  0
   36.9631   46.5304   53.2667 O   0  0  0  0  0  0  0  0  0 22  0  0
   39.6080   46.2618   52.7010 O   0  0  0  0  0  0  0  0  0 23  0  0
  1  2  1  1
  3  2  1  6
  3  4  1  0
  4  5  1  1
  5  6  2  0
  6  7  1  0
  7  2  1  1
  6  8  1  0
  8  9  1  0
  9 10  2  0
  5 10  1  0
 10 11  1  0
 11 12  2  0
 11 13  1  0
 13 14  1  0
 14 15  1  0
  9 15  1  0
 16 17  2  0
 17 18  1  0
 18 19  2  0
 19 20  1  0
 20 21  2  0
 16 21  1  0
 20 22  1  0
 19 23  1  0
 14 16  1  6
M  END
>  <fitscore>  (5) 
0.306964

$$$$
sQC_Substrate__STK536739_rank_5
     RDKit          3D

 23 26  0  0  0  0  0  0  0  0999 V2000
   44.3401   44.8752   61.7990 C   0  0  0  0  0  0  0  0  0  1  0  0
   43.6634   44.6770   60.5077 N   0  0  0  0  0  0  0  0  0  2  0  0
   42.4793   45.4966   60.4931 C   0  0  0  0  0  0  0  0  0  3  0  0
   41.2651   44.7536   61.0589 C   0  0  0  0  0  0  0  0  0  4  0  0
   40.9599   43.7202   59.9678 C   0  0  0  0  0  0  0  0  0  5  0  0
   42.1145   43.0064   59.6585 C   0  0  0  0  0  0  0  0  0  6  0  0
   43.3913   43.2781   60.3365 C   0  0  0  0  0  0  0  0  0  7  0  0
   41.5637   41.8888   58.4050 S   0  0  0  0  0  0  0  0  0  8  0  0
   39.8860   42.4173   58.3653 C   0  0  0  0  0  0  0  0  0  9  0  0
   39.8396   43.4014   59.2964 C   0  0  0  0  0  0  0  0  0 10  0  0
   38.4931   44.0193   59.4768 C   0  0  0  0  0  0  0  0  0 11  0  0
   38.3545   44.9521   60.3278 O   0  0  0  0  0  0  0  0  0 12  0  0
   37.4195   43.5570   58.7062 N   0  0  0  0  0  0  0  0  0 13  0  0
   37.6191   42.8621   57.4551 C   0  0  2  0  0  0  0  0  0 14  0  0
   38.7681   41.9935   57.5780 N   0  0  0  0  0  0  0  0  0 15  0  0
   37.7850   43.8806   56.3998 C   0  0  0  0  0  0  0  0  0 16  0  0
   38.9674   44.4692   56.0682 C   0  0  0  0  0  0  0  0  0 17  0  0
   39.0265   45.4190   55.0596 C   0  0  0  0  0  0  0  0  0 18  0  0
   37.8982   45.8038   54.3559 C   0  0  0  0  0  0  0  0  0 19  0  0
   36.6997   45.2055   54.6938 C   0  0  0  0  0  0  0  0  0 20  0  0
   36.6485   44.2616   55.6980 C   0  0  0  0  0  0  0  0  0 21  0  0
   35.5667   45.5968   53.9819 O   0  0  0  0  0  0  0  0  0 22  0  0
   37.9421   46.7535   53.3435 O   0  0  0  0  0  0  0  0  0 23  0  0
  1  2  1  1
  3  2  1  6
  3  4  1  0
  4  5  1  1
  5  6  2  0
  6  7  1  0
  7  2  1  1
  6  8  1  0
  8  9  1  0
  9 10  2  0
  5 10  1  0
 10 11  1  0
 11 12  2  0
 11 13  1  0
 13 14  1  0
 14 15  1  0
  9 15  1  0
 16 17  2  0
 17 18  1  0
 18 19  2  0
 19 20  1  0
 20 21  2  0
 16 21  1  0
 20 22  1  0
 19 23  1  0
 14 16  1  6
M  END
>  <fitscore>  (6) 
0.286402

$$$$
sQC_Substrate__STK536739_rank_6
     RDKit          3D

 23 26  0  0  0  0  0  0  0  0999 V2000
   44.6890   44.0824   61.4823 C   0  0  0  0  0  0  0  0  0  1  0  0
   43.8325   43.8798   60.3033 N   0  0  0  0  0  0  0  0  0  2  0  0
   42.9980   45.0438   60.1517 C   0  0  0  0  0  0  0  0  0  3  0  0
   41.6842   44.9079   60.9275 C   0  0  0  0  0  0  0  0  0  4  0  0
   40.9201   43.8515   60.1202 C   0  0  0  0  0  0  0  0  0  5  0  0
   41.7227   42.7293   59.9339 C   0  0  0  0  0  0  0  0  0  6  0  0
   43.0897   42.6634   60.4732 C   0  0  0  0  0  0  0  0  0  7  0  0
   40.6812   41.6498   58.9991 S   0  0  0  0  0  0  0  0  0  8  0  0
   39.2851   42.7171   58.9124 C   0  0  0  0  0  0  0  0  0  9  0  0
   39.6846   43.8204   59.5913 C   0  0  0  0  0  0  0  0  0 10  0  0
   38.6547   44.8968   59.6831 C   0  0  0  0  0  0  0  0  0 11  0  0
   38.9411   45.9696   60.3000 O   0  0  0  0  0  0  0  0  0 12  0  0
   37.4026   44.6980   59.0888 N   0  0  0  0  0  0  0  0  0 13  0  0
   37.2040   43.7403   58.0252 C   0  0  2  0  0  0  0  0  0 14  0  0
   38.0025   42.5658   58.2951 N   0  0  0  0  0  0  0  0  0 15  0  0
   37.5703   44.3992   56.7564 C   0  0  0  0  0  0  0  0  0 16  0  0
   38.7046   44.1427   56.0478 C   0  0  0  0  0  0  0  0  0 17  0  0
   38.9651   44.8133   54.8623 C   0  0  0  0  0  0  0  0  0 18  0  0
   38.0923   45.7609   54.3559 C   0  0  0  0  0  0  0  0  0 19  0  0
   36.9421   46.0197   55.0762 C   0  0  0  0  0  0  0  0  0 20  0  0
   36.6897   45.3489   56.2544 C   0  0  0  0  0  0  0  0  0 21  0  0
   36.0668   46.9749   54.5615 O   0  0  0  0  0  0  0  0  0 22  0  0
   38.3398   46.4404   53.1702 O   0  0  0  0  0  0  0  0  0 23  0  0
  1  2  1  1
  3  2  1  6
  3  4  1  0
  4  5  1  1
  5  6  2  0
  6  7  1  0
  7  2  1  1
  6  8  1  0
  8  9  1  0
  9 10  2  0
  5 10  1  0
 10 11  1  0
 11 12  2  0
 11 13  1  0
 13 14  1  0
 14 15  1  0
  9 15  1  0
 16 17  2  0
 17 18  1  0
 18 19  2  0
 19 20  1  0
 20 21  2  0
 16 21  1  0
 20 22  1  0
 19 23  1  0
 14 16  1  6
M  END
>  <fitscore>  (7) 
0.276143

$$$$
sQC_Substrate__STK536739_rank_7
     RDKit          3D

 23 26  0  0  0  0  0  0  0  0999 V2000
   43.1827   46.1872   62.7593 C   0  0  0  0  0  0  0  0  0  1  0  0
   42.8987   45.8074   61.3666 N   0  0  0  0  0  0  0  0  0  2  0  0
   41.5722   46.2634   61.0404 C   0  0  0  0  0  0  0  0  0  3  0  0
   40.5100   45.2110   61.3730 C   0  0  0  0  0  0  0  0  0  4  0  0
   40.7548   44.1330   60.3101 C   0  0  0  0  0  0  0  0  0  5  0  0
   42.0989   43.7701   60.3077 C   0  0  0  0  0  0  0  0  0  6  0  0
   43.0639   44.3880   61.2300 C   0  0  0  0  0  0  0  0  0  7  0  0
   42.1741   42.5427   59.0383 S   0  0  0  0  0  0  0  0  0  8  0  0
   40.4709   42.5813   58.5982 C   0  0  0  0  0  0  0  0  0  9  0  0
   39.9475   43.5136   59.4315 C   0  0  0  0  0  0  0  0  0 10  0  0
   38.4794   43.7308   59.2725 C   0  0  0  0  0  0  0  0  0 11  0  0
   37.9019   44.5881   60.0108 O   0  0  0  0  0  0  0  0  0 12  0  0
   37.7774   42.9866   58.3166 N   0  0  0  0  0  0  0  0  0 13  0  0
   38.4386   42.3747   57.1869 C   0  0  2  0  0  0  0  0  0 14  0  0
   39.7209   41.8618   57.6140 N   0  0  0  0  0  0  0  0  0 15  0  0
   38.5575   43.3985   56.1305 C   0  0  0  0  0  0  0  0  0 16  0  0
   39.6690   43.6046   55.3709 C   0  0  0  0  0  0  0  0  0 17  0  0
   39.6882   44.5934   54.3989 C   0  0  0  0  0  0  0  0  0 18  0  0
   38.5904   45.4028   54.1631 C   0  0  0  0  0  0  0  0  0 19  0  0
   37.4638   45.1922   54.9346 C   0  0  0  0  0  0  0  0  0 20  0  0
   37.4519   44.2070   55.8996 C   0  0  0  0  0  0  0  0  0 21  0  0
   36.3612   46.0104   54.6928 O   0  0  0  0  0  0  0  0  0 22  0  0
   38.5949   46.3969   53.1932 O   0  0  0  0  0  0  0  0  0 23  0  0
  1  2  1  1
  3  2  1  6
  3  4  1  0
  4  5  1  1
  5  6  2  0
  6  7  1  0
  7  2  1  1
  6  8  1  0
  8  9  1  0
  9 10  2  0
  5 10  1  0
 10 11  1  0
 11 12  2  0
 11 13  1  0
 13 14  1  0
 14 15  1  0
  9 15  1  0
 16 17  2  0
 17 18  1  0
 18 19  2  0
 19 20  1  0
 20 21  2  0
 16 21  1  0
 20 22  1  0
 19 23  1  0
 14 16  1  6
M  END
>  <fitscore>  (8) 
0.246349

$$$$
sQC_Substrate__STK536739_rank_8
     RDKit          3D

 23 26  0  0  0  0  0  0  0  0999 V2000
   43.5821   46.6304   62.0192 C   0  0  0  0  0  0  0  0  0  1  0  0
   43.0185   46.0675   60.7823 N   0  0  0  0  0  0  0  0  0  2  0  0
   41.7334   46.6778   60.5585 C   0  0  0  0  0  0  0  0  0  3  0  0
   40.6049   45.8947   61.2365 C   0  0  0  0  0  0  0  0  0  4  0  0
   40.5145   44.6225   60.3851 C   0  0  0  0  0  0  0  0  0  5  0  0
   41.7748   44.0424   60.2691 C   0  0  0  0  0  0  0  0  0  6  0  0
   42.9576   44.6390   60.9084 C   0  0  0  0  0  0  0  0  0  7  0  0
   41.4633   42.6180   59.2703 S   0  0  0  0  0  0  0  0  0  8  0  0
   39.7330   42.8673   59.0707 C   0  0  0  0  0  0  0  0  0  9  0  0
   39.4926   44.0054   59.7668 C   0  0  0  0  0  0  0  0  0 10  0  0
   38.0638   44.4370   59.7721 C   0  0  0  0  0  0  0  0  0 11  0  0
   37.7443   45.4949   60.3983 O   0  0  0  0  0  0  0  0  0 12  0  0
   37.1143   43.6675   59.0890 N   0  0  0  0  0  0  0  0  0 13  0  0
   37.4844   42.7653   58.0228 C   0  0  2  0  0  0  0  0  0 14  0  0
   38.7353   42.1249   58.3620 N   0  0  0  0  0  0  0  0  0 15  0  0
   37.5672   43.5543   56.7783 C   0  0  0  0  0  0  0  0  0 16  0  0
   37.6993   44.9088   56.7253 C   0  0  0  0  0  0  0  0  0 17  0  0
   37.7690   45.5656   55.5060 C   0  0  0  0  0  0  0  0  0 18  0  0
   37.7080   44.8790   54.3056 C   0  0  0  0  0  0  0  0  0 19  0  0
   37.5740   43.5052   54.3614 C   0  0  0  0  0  0  0  0  0 20  0  0
   37.5052   42.8586   55.5777 C   0  0  0  0  0  0  0  0  0 21  0  0
   37.5130   42.8189   53.1494 O   0  0  0  0  0  0  0  0  0 22  0  0
   37.7766   45.5232   53.0770 O   0  0  0  0  0  0  0  0  0 23  0  0
  1  2  1  1
  3  2  1  6
  3  4  1  0
  4  5  1  1
  5  6  2  0
  6  7  1  0
  7  2  1  1
  6  8  1  0
  8  9  1  0
  9 10  2  0
  5 10  1  0
 10 11  1  0
 11 12  2  0
 11 13  1  0
 13 14  1  0
 14 15  1  0
  9 15  1  0
 16 17  2  0
 17 18  1  0
 18 19  2  0
 19 20  1  0
 20 21  2  0
 16 21  1  0
 20 22  1  0
 19 23  1  0
 14 16  1  6
M  END
>  <fitscore>  (9) 
0.241617

$$$$
sQC_Substrate__STK536739_rank_9
     RDKit          3D

 23 26  0  0  0  0  0  0  0  0999 V2000
   44.2681   44.4455   62.2466 C   0  0  0  0  0  0  0  0  0  1  0  0
   43.5800   44.2976   60.9546 N   0  0  0  0  0  0  0  0  0  2  0  0
   42.4653   45.2092   60.9348 C   0  0  0  0  0  0  0  0  0  3  0  0
   41.1946   44.5677   61.5007 C   0  0  0  0  0  0  0  0  0  4  0  0
   40.8096   43.5582   60.4124 C   0  0  0  0  0  0  0  0  0  5  0  0
   41.9039   42.7533   60.1078 C   0  0  0  0  0  0  0  0  0  6  0  0
   43.1972   42.9243   60.7875 C   0  0  0  0  0  0  0  0  0  7  0  0
   41.2678   41.6789   58.8569 S   0  0  0  0  0  0  0  0  0  8  0  0
   39.6378   42.3398   58.8120 C   0  0  0  0  0  0  0  0  0  9  0  0
   39.6686   43.3277   59.7398 C   0  0  0  0  0  0  0  0  0 10  0  0
   38.3755   44.0519   59.9154 C   0  0  0  0  0  0  0  0  0 11  0  0
   38.3105   44.9958   60.7630 O   0  0  0  0  0  0  0  0  0 12  0  0
   37.2697   43.6743   59.1440 N   0  0  0  0  0  0  0  0  0 13  0  0
   37.4154   42.9613   57.8957 C   0  0  2  0  0  0  0  0  0 14  0  0
   38.4910   42.0040   58.0239 N   0  0  0  0  0  0  0  0  0 15  0  0
   37.6640   43.9595   56.8374 C   0  0  0  0  0  0  0  0  0 16  0  0
   38.5670   44.9752   56.9251 C   0  0  0  0  0  0  0  0  0 17  0  0
   38.7320   45.8675   55.8765 C   0  0  0  0  0  0  0  0  0 18  0  0
   37.9939   45.7637   54.7102 C   0  0  0  0  0  0  0  0  0 19  0  0
   37.0784   44.7327   54.6231 C   0  0  0  0  0  0  0  0  0 20  0  0
   36.9196   43.8490   55.6699 C   0  0  0  0  0  0  0  0  0 21  0  0
   36.3378   44.6330   53.4462 O   0  0  0  0  0  0  0  0  0 22  0  0
   38.1483   46.6498   53.6519 O   0  0  0  0  0  0  0  0  0 23  0  0
  1  2  1  1
  3  2  1  6
  3  4  1  0
  4  5  1  1
  5  6  2  0
  6  7  1  0
  7  2  1  1
  6  8  1  0
  8  9  1  0
  9 10  2  0
  5 10  1  0
 10 11  1  0
 11 12  2  0
 11 13  1  0
 13 14  1  0
 14 15  1  0
  9 15  1  0
 16 17  2  0
 17 18  1  0
 18 19  2  0
 19 20  1  0
 20 21  2  0
 16 21  1  0
 20 22  1  0
 19 23  1  0
 14 16  1  6
M  END
>  <fitscore>  (10) 
0.239703

$$$$
sQC_Substrate__STK536739_rank_10
     RDKit          3D

 23 26  0  0  0  0  0  0  0  0999 V2000
   43.9950   42.8879   61.8651 C   0  0  0  0  0  0  0  0  0  1  0  0
   43.2597   42.7723   60.5960 N   0  0  0  0  0  0  0  0  0  2  0  0
   42.6936   44.0603   60.2884 C   0  0  0  0  0  0  0  0  0  3  0  0
   41.2970   44.2284   60.8947 C   0  0  0  0  0  0  0  0  0  4  0  0
   40.4404   43.2839   60.0427 C   0  0  0  0  0  0  0  0  0  5  0  0
   41.0233   42.0200   60.0095 C   0  0  0  0  0  0  0  0  0  6  0  0
   42.2779   41.7328   60.7218 C   0  0  0  0  0  0  0  0  0  7  0  0
   39.9071   41.0970   58.9967 S   0  0  0  0  0  0  0  0  0  8  0  0
   38.7677   42.4011   58.6856 C   0  0  0  0  0  0  0  0  0  9  0  0
   39.2935   43.4518   59.3617 C   0  0  0  0  0  0  0  0  0 10  0  0
   38.4915   44.7075   59.2740 C   0  0  0  0  0  0  0  0  0 11  0  0
   38.9086   45.7457   59.8755 O   0  0  0  0  0  0  0  0  0 12  0  0
   37.3033   44.7100   58.5335 N   0  0  0  0  0  0  0  0  0 13  0  0
   37.0467   43.7379   57.4957 C   0  0  2  0  0  0  0  0  0 14  0  0
   37.5618   42.4543   57.9163 N   0  0  0  0  0  0  0  0  0 15  0  0
   37.6815   44.2286   56.2569 C   0  0  0  0  0  0  0  0  0 16  0  0
   38.9328   43.8902   55.8393 C   0  0  0  0  0  0  0  0  0 17  0  0
   39.4470   44.4026   54.6578 C   0  0  0  0  0  0  0  0  0 18  0  0
   38.7174   45.2696   53.8628 C   0  0  0  0  0  0  0  0  0 19  0  0
   37.4483   45.6116   54.2881 C   0  0  0  0  0  0  0  0  0 20  0  0
   36.9434   45.0982   55.4643 C   0  0  0  0  0  0  0  0  0 21  0  0
   36.7181   46.4852   53.4834 O   0  0  0  0  0  0  0  0  0 22  0  0
   39.2192   45.7906   52.6771 O   0  0  0  0  0  0  0  0  0 23  0  0
  1  2  1  1
  3  2  1  6
  3  4  1  0
  4  5  1  1
  5  6  2  0
  6  7  1  0
  7  2  1  1
  6  8  1  0
  8  9  1  0
  9 10  2  0
  5 10  1  0
 10 11  1  0
 11 12  2  0
 11 13  1  0
 13 14  1  0
 14 15  1  0
  9 15  1  0
 16 17  2  0
 17 18  1  0
 18 19  2  0
 19 20  1  0
 20 21  2  0
 16 21  1  0
 20 22  1  0
 19 23  1  0
 14 16  1  6
M  END
>  <fitscore>  (11) 
0.232731

$$$$
sQC_Substrate__STK536739_rank_11
     RDKit          3D

 23 26  0  0  0  0  0  0  0  0999 V2000
   43.7494   45.6773   62.2792 C   0  0  0  0  0  0  0  0  0  1  0  0
   43.1601   45.1587   61.0349 N   0  0  0  0  0  0  0  0  0  2  0  0
   42.1334   46.0751   60.6106 C   0  0  0  0  0  0  0  0  0  3  0  0
   40.7699   45.7215   61.2124 C   0  0  0  0  0  0  0  0  0  4  0  0
   40.3905   44.4377   60.4643 C   0  0  0  0  0  0  0  0  0  5  0  0
   41.4329   43.5185   60.5469 C   0  0  0  0  0  0  0  0  0  6  0  0
   42.6756   43.8282   61.2705 C   0  0  0  0  0  0  0  0  0  7  0  0
   40.8120   42.1349   59.6394 S   0  0  0  0  0  0  0  0  0  8  0  0
   39.2541   42.8347   59.2161 C   0  0  0  0  0  0  0  0  0  9  0  0
   39.2933   44.0657   59.7823 C   0  0  0  0  0  0  0  0  0 10  0  0
   38.0572   44.8780   59.5825 C   0  0  0  0  0  0  0  0  0 11  0  0
   38.0040   46.0469   60.0768 O   0  0  0  0  0  0  0  0  0 12  0  0
   36.9904   44.3333   58.8575 N   0  0  0  0  0  0  0  0  0 13  0  0
   37.1766   43.2488   57.9209 C   0  0  2  0  0  0  0  0  0 14  0  0
   38.1516   42.3263   58.4578 N   0  0  0  0  0  0  0  0  0 15  0  0
   37.5967   43.8369   56.6341 C   0  0  0  0  0  0  0  0  0 16  0  0
   38.8128   44.4034   56.3997 C   0  0  0  0  0  0  0  0  0 17  0  0
   39.1189   44.9319   55.1548 C   0  0  0  0  0  0  0  0  0 18  0  0
   38.2108   44.9059   54.1104 C   0  0  0  0  0  0  0  0  0 19  0  0
   36.9778   44.3308   54.3501 C   0  0  0  0  0  0  0  0  0 20  0  0
   36.6803   43.8071   55.5908 C   0  0  0  0  0  0  0  0  0 21  0  0
   36.0672   44.3073   53.2947 O   0  0  0  0  0  0  0  0  0 22  0  0
   38.5033   45.4312   52.8584 O   0  0  0  0  0  0  0  0  0 23  0  0
  1  2  1  1
  3  2  1  6
  3  4  1  0
  4  5  1  1
  5  6  2  0
  6  7  1  0
  7  2  1  1
  6  8  1  0
  8  9  1  0
  9 10  2  0
  5 10  1  0
 10 11  1  0
 11 12  2  0
 11 13  1  0
 13 14  1  0
 14 15  1  0
  9 15  1  0
 16 17  2  0
 17 18  1  0
 18 19  2  0
 19 20  1  0
 20 21  2  0
 16 21  1  0
 20 22  1  0
 19 23  1  0
 14 16  1  6
M  END
>  <fitscore>  (12) 
0.227576

$$$$
sQC_Substrate__STK536739_rank_12
     RDKit          3D

 23 26  0  0  0  0  0  0  0  0999 V2000
   41.6200   46.5918   62.8325 C   0  0  0  0  0  0  0  0  0  1  0  0
   41.5827   46.0336   61.4717 N   0  0  0  0  0  0  0  0  0  2  0  0
   40.3349   46.4187   60.8646 C   0  0  0  0  0  0  0  0  0  3  0  0
   39.2281   45.3959   61.1393 C   0  0  0  0  0  0  0  0  0  4  0  0
   39.6519   44.1974   60.2816 C   0  0  0  0  0  0  0  0  0  5  0  0
   40.9748   43.8637   60.5590 C   0  0  0  0  0  0  0  0  0  6  0  0
   41.7654   44.6120   61.5483 C   0  0  0  0  0  0  0  0  0  7  0  0
   41.2673   42.4876   59.4893 S   0  0  0  0  0  0  0  0  0  8  0  0
   39.6674   42.4368   58.7588 C   0  0  0  0  0  0  0  0  0  9  0  0
   39.0089   43.4563   59.3626 C   0  0  0  0  0  0  0  0  0 10  0  0
   37.5918   43.6227   58.9247 C   0  0  0  0  0  0  0  0  0 11  0  0
   36.8965   44.5548   59.4359 O   0  0  0  0  0  0  0  0  0 12  0  0
   37.0656   42.7501   57.9644 N   0  0  0  0  0  0  0  0  0 13  0  0
   37.9124   42.0137   57.0542 C   0  0  2  0  0  0  0  0  0 14  0  0
   39.0989   41.5841   57.7595 N   0  0  0  0  0  0  0  0  0 15  0  0
   38.2169   42.8981   55.9126 C   0  0  0  0  0  0  0  0  0 16  0  0
   39.4696   43.1639   55.4491 C   0  0  0  0  0  0  0  0  0 17  0  0
   39.6587   44.0103   54.3671 C   0  0  0  0  0  0  0  0  0 18  0  0
   38.5937   44.6134   53.7206 C   0  0  0  0  0  0  0  0  0 19  0  0
   37.3237   44.3424   54.1922 C   0  0  0  0  0  0  0  0  0 20  0  0
   37.1431   43.4996   55.2687 C   0  0  0  0  0  0  0  0  0 21  0  0
   36.2548   44.9525   53.5372 O   0  0  0  0  0  0  0  0  0 22  0  0
   38.7678   45.4632   52.6359 O   0  0  0  0  0  0  0  0  0 23  0  0
  1  2  1  1
  3  2  1  6
  3  4  1  0
  4  5  1  1
  5  6  2  0
  6  7  1  0
  7  2  1  1
  6  8  1  0
  8  9  1  0
  9 10  2  0
  5 10  1  0
 10 11  1  0
 11 12  2  0
 11 13  1  0
 13 14  1  0
 14 15  1  0
  9 15  1  0
 16 17  2  0
 17 18  1  0
 18 19  2  0
 19 20  1  0
 20 21  2  0
 16 21  1  0
 20 22  1  0
 19 23  1  0
 14 16  1  6
M  END
>  <fitscore>  (13) 
0.227013

$$$$
sQC_Substrate__STK536739_rank_13
     RDKit          3D

 23 26  0  0  0  0  0  0  0  0999 V2000
   43.4819   44.9746   62.4061 C   0  0  0  0  0  0  0  0  0  1  0  0
   43.0242   44.6329   61.0503 N   0  0  0  0  0  0  0  0  0  2  0  0
   41.9052   45.4808   60.7292 C   0  0  0  0  0  0  0  0  0  3  0  0
   40.5747   44.8559   61.1603 C   0  0  0  0  0  0  0  0  0  4  0  0
   40.4039   43.7004   60.1666 C   0  0  0  0  0  0  0  0  0  5  0  0
   41.5544   42.9165   60.1531 C   0  0  0  0  0  0  0  0  0  6  0  0
   42.7106   43.2329   61.0057 C   0  0  0  0  0  0  0  0  0  7  0  0
   41.1649   41.6643   58.9681 S   0  0  0  0  0  0  0  0  0  8  0  0
   39.5489   42.2361   58.5717 C   0  0  0  0  0  0  0  0  0  9  0  0
   39.3982   43.3332   59.3537 C   0  0  0  0  0  0  0  0  0 10  0  0
   38.0755   44.0115   59.2193 C   0  0  0  0  0  0  0  0  0 11  0  0
   37.8449   45.0503   59.9130 O   0  0  0  0  0  0  0  0  0 12  0  0
   37.1248   43.4877   58.3349 N   0  0  0  0  0  0  0  0  0 13  0  0
   37.4960   42.6312   57.2320 C   0  0  2  0  0  0  0  0  0 14  0  0
   38.5595   41.7498   57.6588 N   0  0  0  0  0  0  0  0  0 15  0  0
   37.8925   43.4991   56.1060 C   0  0  0  0  0  0  0  0  0 16  0  0
   38.7583   43.1412   55.1176 C   0  0  0  0  0  0  0  0  0 17  0  0
   39.0720   44.0262   54.0972 C   0  0  0  0  0  0  0  0  0 18  0  0
   38.5240   45.2962   54.0419 C   0  0  0  0  0  0  0  0  0 19  0  0
   37.6460   45.6573   55.0455 C   0  0  0  0  0  0  0  0  0 20  0  0
   37.3386   44.7719   56.0572 C   0  0  0  0  0  0  0  0  0 21  0  0
   37.0972   46.9375   54.9847 O   0  0  0  0  0  0  0  0  0 22  0  0
   38.8288   46.1932   53.0263 O   0  0  0  0  0  0  0  0  0 23  0  0
  1  2  1  1
  3  2  1  6
  3  4  1  0
  4  5  1  1
  5  6  2  0
  6  7  1  0
  7  2  1  1
  6  8  1  0
  8  9  1  0
  9 10  2  0
  5 10  1  0
 10 11  1  0
 11 12  2  0
 11 13  1  0
 13 14  1  0
 14 15  1  0
  9 15  1  0
 16 17  2  0
 17 18  1  0
 18 19  2  0
 19 20  1  0
 20 21  2  0
 16 21  1  0
 20 22  1  0
 19 23  1  0
 14 16  1  6
M  END
>  <fitscore>  (14) 
0.225311

$$$$
sQC_Substrate__STK536739_rank_14
     RDKit          3D

 23 26  0  0  0  0  0  0  0  0999 V2000
   42.5660   45.4385   62.7301 C   0  0  0  0  0  0  0  0  0  1  0  0
   42.2858   45.2450   61.2989 N   0  0  0  0  0  0  0  0  0  2  0  0
   40.9433   45.6977   61.0409 C   0  0  0  0  0  0  0  0  0  3  0  0
   39.9178   44.5752   61.2271 C   0  0  0  0  0  0  0  0  0  4  0  0
   40.1906   43.6625   60.0253 C   0  0  0  0  0  0  0  0  0  5  0  0
   41.5457   43.3478   59.9706 C   0  0  0  0  0  0  0  0  0  6  0  0
   42.4959   43.8642   60.9677 C   0  0  0  0  0  0  0  0  0  7  0  0
   41.6526   42.3100   58.5440 S   0  0  0  0  0  0  0  0  0  8  0  0
   39.9464   42.3529   58.1163 C   0  0  0  0  0  0  0  0  0  9  0  0
   39.3982   43.1438   59.0711 C   0  0  0  0  0  0  0  0  0 10  0  0
   37.9229   43.3324   58.9461 C   0  0  0  0  0  0  0  0  0 11  0  0
   37.3227   44.0604   59.7966 O   0  0  0  0  0  0  0  0  0 12  0  0
   37.2394   42.7043   57.8980 N   0  0  0  0  0  0  0  0  0 13  0  0
   37.9130   42.2759   56.6935 C   0  0  2  0  0  0  0  0  0 14  0  0
   39.2138   41.7515   57.0437 N   0  0  0  0  0  0  0  0  0 15  0  0
   37.9922   43.4388   55.7882 C   0  0  0  0  0  0  0  0  0 16  0  0
   39.0715   43.7512   55.0185 C   0  0  0  0  0  0  0  0  0 17  0  0
   39.0544   44.8674   54.1958 C   0  0  0  0  0  0  0  0  0 18  0  0
   37.9517   45.7010   54.1239 C   0  0  0  0  0  0  0  0  0 19  0  0
   36.8579   45.3825   54.9054 C   0  0  0  0  0  0  0  0  0 20  0  0
   36.8820   44.2708   55.7212 C   0  0  0  0  0  0  0  0  0 21  0  0
   35.7502   46.2255   54.8289 O   0  0  0  0  0  0  0  0  0 22  0  0
   37.9202   46.8222   53.3047 O   0  0  0  0  0  0  0  0  0 23  0  0
  1  2  1  1
  3  2  1  6
  3  4  1  0
  4  5  1  1
  5  6  2  0
  6  7  1  0
  7  2  1  1
  6  8  1  0
  8  9  1  0
  9 10  2  0
  5 10  1  0
 10 11  1  0
 11 12  2  0
 11 13  1  0
 13 14  1  0
 14 15  1  0
  9 15  1  0
 16 17  2  0
 17 18  1  0
 18 19  2  0
 19 20  1  0
 20 21  2  0
 16 21  1  0
 20 22  1  0
 19 23  1  0
 14 16  1  6
M  END
>  <fitscore>  (15) 
0.223251

$$$$
sQC_Substrate__STK536739_rank_15
     RDKit          3D

 23 26  0  0  0  0  0  0  0  0999 V2000
   43.0170   45.4925   62.9260 C   0  0  0  0  0  0  0  0  0  1  0  0
   42.5919   45.2644   61.5361 N   0  0  0  0  0  0  0  0  0  2  0  0
   41.2326   45.7214   61.4037 C   0  0  0  0  0  0  0  0  0  3  0  0
   40.2251   44.6125   61.7225 C   0  0  0  0  0  0  0  0  0  4  0  0
   40.3694   43.6669   60.5239 C   0  0  0  0  0  0  0  0  0  5  0  0
   41.7102   43.3398   60.3405 C   0  0  0  0  0  0  0  0  0  6  0  0
   42.7596   43.8739   61.2220 C   0  0  0  0  0  0  0  0  0  7  0  0
   41.6659   42.2647   58.9384 S   0  0  0  0  0  0  0  0  0  8  0  0
   39.9254   42.3105   58.6849 C   0  0  0  0  0  0  0  0  0  9  0  0
   39.4814   43.1302   59.6690 C   0  0  0  0  0  0  0  0  0 10  0  0
   38.0021   43.3276   59.6893 C   0  0  0  0  0  0  0  0  0 11  0  0
   37.4954   44.0822   60.5766 O   0  0  0  0  0  0  0  0  0 12  0  0
   37.2122   42.6783   58.7328 N   0  0  0  0  0  0  0  0  0 13  0  0
   37.7576   42.2134   57.4781 C   0  0  2  0  0  0  0  0  0 14  0  0
   39.0844   41.6876   57.7084 N   0  0  0  0  0  0  0  0  0 15  0  0
   37.7509   43.3519   56.5389 C   0  0  0  0  0  0  0  0  0 16  0  0
   37.5769   44.6539   56.8984 C   0  0  0  0  0  0  0  0  0 17  0  0
   37.5857   45.6589   55.9431 C   0  0  0  0  0  0  0  0  0 18  0  0
   37.7696   45.3832   54.5991 C   0  0  0  0  0  0  0  0  0 19  0  0
   37.9460   44.0618   54.2363 C   0  0  0  0  0  0  0  0  0 20  0  0
   37.9361   43.0675   55.1919 C   0  0  0  0  0  0  0  0  0 21  0  0
   38.1308   43.7900   52.8815 O   0  0  0  0  0  0  0  0  0 22  0  0
   37.7807   46.3791   53.6312 O   0  0  0  0  0  0  0  0  0 23  0  0
  1  2  1  1
  3  2  1  6
  3  4  1  0
  4  5  1  1
  5  6  2  0
  6  7  1  0
  7  2  1  1
  6  8  1  0
  8  9  1  0
  9 10  2  0
  5 10  1  0
 10 11  1  0
 11 12  2  0
 11 13  1  0
 13 14  1  0
 14 15  1  0
  9 15  1  0
 16 17  2  0
 17 18  1  0
 18 19  2  0
 19 20  1  0
 20 21  2  0
 16 21  1  0
 20 22  1  0
 19 23  1  0
 14 16  1  6
M  END
>  <fitscore>  (16) 
0.221802

$$$$
sQC_Substrate__STK536739_rank_16
     RDKit          3D

 23 26  0  0  0  0  0  0  0  0999 V2000
   43.8682   45.1417   61.8587 C   0  0  0  0  0  0  0  0  0  1  0  0
   43.1786   45.0001   60.5669 N   0  0  0  0  0  0  0  0  0  2  0  0
   41.8743   45.5985   60.6885 C   0  0  0  0  0  0  0  0  0  3  0  0
   40.8279   44.5903   61.1733 C   0  0  0  0  0  0  0  0  0  4  0  0
   40.6529   43.6709   59.9584 C   0  0  0  0  0  0  0  0  0  5  0  0
   41.8962   43.2130   59.5309 C   0  0  0  0  0  0  0  0  0  6  0  0
   43.1378   43.6097   60.2128 C   0  0  0  0  0  0  0  0  0  7  0  0
   41.4865   42.1904   58.1489 S   0  0  0  0  0  0  0  0  0  8  0  0
   39.7437   42.4229   58.2164 C   0  0  0  0  0  0  0  0  0  9  0  0
   39.5737   43.2544   59.2734 C   0  0  0  0  0  0  0  0  0 10  0  0
   38.1518   43.6024   59.5641 C   0  0  0  0  0  0  0  0  0 11  0  0
   37.8961   44.3785   60.5367 O   0  0  0  0  0  0  0  0  0 12  0  0
   37.1383   43.0667   58.7603 N   0  0  0  0  0  0  0  0  0 13  0  0
   37.3968   42.5857   57.4225 C   0  0  2  0  0  0  0  0  0 14  0  0
   38.6795   41.9193   57.4023 N   0  0  0  0  0  0  0  0  0 15  0  0
   37.3431   43.7463   56.5122 C   0  0  0  0  0  0  0  0  0 16  0  0
   36.2801   44.0652   55.7230 C   0  0  0  0  0  0  0  0  0 17  0  0
   36.3209   45.1785   54.8972 C   0  0  0  0  0  0  0  0  0 18  0  0
   37.4318   46.0025   54.8417 C   0  0  0  0  0  0  0  0  0 19  0  0
   38.5091   45.6772   55.6431 C   0  0  0  0  0  0  0  0  0 20  0  0
   38.4615   44.5685   56.4619 C   0  0  0  0  0  0  0  0  0 21  0  0
   39.6252   46.5106   55.5832 O   0  0  0  0  0  0  0  0  0 22  0  0
   37.4871   47.1206   54.0197 O   0  0  0  0  0  0  0  0  0 23  0  0
  1  2  1  1
  3  2  1  6
  3  4  1  0
  4  5  1  1
  5  6  2  0
  6  7  1  0
  7  2  1  1
  6  8  1  0
  8  9  1  0
  9 10  2  0
  5 10  1  0
 10 11  1  0
 11 12  2  0
 11 13  1  0
 13 14  1  0
 14 15  1  0
  9 15  1  0
 16 17  2  0
 17 18  1  0
 18 19  2  0
 19 20  1  0
 20 21  2  0
 16 21  1  0
 20 22  1  0
 19 23  1  0
 14 16  1  6
M  END
>  <fitscore>  (17) 
0.212174

$$$$
sQC_Substrate__STK536739_rank_17
     RDKit          3D

 23 26  0  0  0  0  0  0  0  0999 V2000
   43.7957   44.8638   61.6456 C   0  0  0  0  0  0  0  0  0  1  0  0
   43.1192   44.6132   60.3634 N   0  0  0  0  0  0  0  0  0  2  0  0
   41.9290   45.4229   60.3201 C   0  0  0  0  0  0  0  0  0  3  0  0
   40.7210   44.6923   60.9145 C   0  0  0  0  0  0  0  0  0  4  0  0
   40.4223   43.6172   59.8625 C   0  0  0  0  0  0  0  0  0  5  0  0
   41.5819   42.9010   59.5783 C   0  0  0  0  0  0  0  0  0  6  0  0
   42.8574   43.2070   60.2441 C   0  0  0  0  0  0  0  0  0  7  0  0
   41.0383   41.7340   58.3674 S   0  0  0  0  0  0  0  0  0  8  0  0
   39.3566   42.2482   58.3104 C   0  0  0  0  0  0  0  0  0  9  0  0
   39.3038   43.2655   59.2048 C   0  0  0  0  0  0  0  0  0 10  0  0
   37.9528   43.8797   59.3641 C   0  0  0  0  0  0  0  0  0 11  0  0
   37.8082   44.8422   60.1803 O   0  0  0  0  0  0  0  0  0 12  0  0
   36.8820   43.3814   58.6123 N   0  0  0  0  0  0  0  0  0 13  0  0
   37.0855   42.6424   57.3874 C   0  0  2  0  0  0  0  0  0 14  0  0
   38.2411   41.7874   57.5408 N   0  0  0  0  0  0  0  0  0 15  0  0
   37.2427   43.6224   56.2951 C   0  0  0  0  0  0  0  0  0 16  0  0
   36.2385   44.3937   55.7937 C   0  0  0  0  0  0  0  0  0 17  0  0
   36.4815   45.2897   54.7636 C   0  0  0  0  0  0  0  0  0 18  0  0
   37.7412   45.4355   54.2086 C   0  0  0  0  0  0  0  0  0 19  0  0
   38.7586   44.6522   54.7186 C   0  0  0  0  0  0  0  0  0 20  0  0
   38.5096   43.7633   55.7431 C   0  0  0  0  0  0  0  0  0 21  0  0
   40.0251   44.8033   54.1558 O   0  0  0  0  0  0  0  0  0 22  0  0
   37.9995   46.3285   53.1768 O   0  0  0  0  0  0  0  0  0 23  0  0
  1  2  1  1
  3  2  1  6
  3  4  1  0
  4  5  1  1
  5  6  2  0
  6  7  1  0
  7  2  1  1
  6  8  1  0
  8  9  1  0
  9 10  2  0
  5 10  1  0
 10 11  1  0
 11 12  2  0
 11 13  1  0
 13 14  1  0
 14 15  1  0
  9 15  1  0
 16 17  2  0
 17 18  1  0
 18 19  2  0
 19 20  1  0
 20 21  2  0
 16 21  1  0
 20 22  1  0
 19 23  1  0
 14 16  1  6
M  END
>  <fitscore>  (18) 
0.201952

$$$$
sQC_Substrate__STK536739_rank_18
     RDKit          3D

 23 26  0  0  0  0  0  0  0  0999 V2000
   41.6091   45.2289   63.8045 C   0  0  0  0  0  0  0  0  0  1  0  0
   41.6295   45.2422   62.3335 N   0  0  0  0  0  0  0  0  0  2  0  0
   40.2735   45.3815   61.8688 C   0  0  0  0  0  0  0  0  0  3  0  0
   39.5918   44.0221   61.6852 C   0  0  0  0  0  0  0  0  0  4  0  0
   40.3016   43.4493   60.4525 C   0  0  0  0  0  0  0  0  0  5  0  0
   41.6807   43.5028   60.6355 C   0  0  0  0  0  0  0  0  0  6  0  0
   42.2724   44.0463   61.8677 C   0  0  0  0  0  0  0  0  0  7  0  0
   42.3054   42.8114   59.1337 S   0  0  0  0  0  0  0  0  0  8  0  0
   40.7490   42.5014   58.3739 C   0  0  0  0  0  0  0  0  0  9  0  0
   39.8530   42.9354   59.2940 C   0  0  0  0  0  0  0  0  0 10  0  0
   38.4249   42.7654   58.8949 C   0  0  0  0  0  0  0  0  0 11  0  0
   37.5144   43.1460   59.6946 O   0  0  0  0  0  0  0  0  0 12  0  0
   38.1253   42.1927   57.6529 N   0  0  0  0  0  0  0  0  0 13  0  0
   39.0774   42.1813   56.5660 C   0  0  2  0  0  0  0  0  0 14  0  0
   40.3994   41.9462   57.1017 N   0  0  0  0  0  0  0  0  0 15  0  0
   38.9689   43.4746   55.8634 C   0  0  0  0  0  0  0  0  0 16  0  0
   39.6015   44.6195   56.2426 C   0  0  0  0  0  0  0  0  0 17  0  0
   39.4392   45.7907   55.5182 C   0  0  0  0  0  0  0  0  0 18  0  0
   38.6361   45.8439   54.3920 C   0  0  0  0  0  0  0  0  0 19  0  0
   37.9952   44.6815   54.0089 C   0  0  0  0  0  0  0  0  0 20  0  0
   38.1614   43.5203   54.7342 C   0  0  0  0  0  0  0  0  0 21  0  0
   37.1877   44.7409   52.8740 O   0  0  0  0  0  0  0  0  0 22  0  0
   38.4640   47.0095   53.6567 O   0  0  0  0  0  0  0  0  0 23  0  0
  1  2  1  1
  3  2  1  6
  3  4  1  0
  4  5  1  1
  5  6  2  0
  6  7  1  0
  7  2  1  1
  6  8  1  0
  8  9  1  0
  9 10  2  0
  5 10  1  0
 10 11  1  0
 11 12  2  0
 11 13  1  0
 13 14  1  0
 14 15  1  0
  9 15  1  0
 16 17  2  0
 17 18  1  0
 18 19  2  0
 19 20  1  0
 20 21  2  0
 16 21  1  0
 20 22  1  0
 19 23  1  0
 14 16  1  1
M  END
>  <fitscore>  (19) 
0.196656

$$$$
sQC_Substrate__STK536739_rank_19
     RDKit          3D

 23 26  0  0  0  0  0  0  0  0999 V2000
   45.0318   43.6640   59.5244 C   0  0  0  0  0  0  0  0  0  1  0  0
   43.8666   43.6195   58.6273 N   0  0  0  0  0  0  0  0  0  2  0  0
   43.0407   44.7649   58.9101 C   0  0  0  0  0  0  0  0  0  3  0  0
   42.0077   44.4670   60.0012 C   0  0  0  0  0  0  0  0  0  4  0  0
   41.0268   43.5248   59.2928 C   0  0  0  0  0  0  0  0  0  5  0  0
   41.7245   42.4721   58.7068 C   0  0  0  0  0  0  0  0  0  6  0  0
   43.1882   42.3678   58.8098 C   0  0  0  0  0  0  0  0  0  7  0  0
   40.4409   41.5179   57.9548 S   0  0  0  0  0  0  0  0  0  8  0  0
   39.0952   42.5394   58.4461 C   0  0  0  0  0  0  0  0  0  9  0  0
   39.6905   43.5360   59.1462 C   0  0  0  0  0  0  0  0  0 10  0  0
   38.7473   44.5507   59.7015 C   0  0  0  0  0  0  0  0  0 11  0  0
   39.2160   45.5231   60.3711 O   0  0  0  0  0  0  0  0  0 12  0  0
   37.3738   44.4061   59.4715 N   0  0  0  0  0  0  0  0  0 13  0  0
   36.8608   43.6197   58.3732 C   0  0  2  0  0  0  0  0  0 14  0  0
   37.6865   42.4443   58.2107 N   0  0  0  0  0  0  0  0  0 15  0  0
   36.8514   44.4798   57.1739 C   0  0  0  0  0  0  0  0  0 16  0  0
   35.7353   45.0349   56.6254 C   0  0  0  0  0  0  0  0  0 17  0  0
   35.8243   45.8319   55.4942 C   0  0  0  0  0  0  0  0  0 18  0  0
   37.0382   46.0932   54.8824 C   0  0  0  0  0  0  0  0  0 19  0  0
   38.1693   45.5292   55.4402 C   0  0  0  0  0  0  0  0  0 20  0  0
   38.0732   44.7376   56.5654 C   0  0  0  0  0  0  0  0  0 21  0  0
   39.3890   45.7958   54.8199 O   0  0  0  0  0  0  0  0  0 22  0  0
   37.1428   46.8894   53.7491 O   0  0  0  0  0  0  0  0  0 23  0  0
  1  2  1  1
  3  2  1  6
  3  4  1  0
  4  5  1  1
  5  6  2  0
  6  7  1  0
  7  2  1  1
  6  8  1  0
  8  9  1  0
  9 10  2  0
  5 10  1  0
 10 11  1  0
 11 12  2  0
 11 13  1  0
 13 14  1  0
 14 15  1  0
  9 15  1  0
 16 17  2  0
 17 18  1  0
 18 19  2  0
 19 20  1  0
 20 21  2  0
 16 21  1  0
 20 22  1  0
 19 23  1  0
 14 16  1  6
M  END
>  <fitscore>  (20) 
0.195254

$$$$
sQC_Substrate__STK536739_rank_20
     RDKit          3D

 23 26  0  0  0  0  0  0  0  0999 V2000
   42.8745   45.2947   62.5139 C   0  0  0  0  0  0  0  0  0  1  0  0
   42.4117   45.1159   61.1288 N   0  0  0  0  0  0  0  0  0  2  0  0
   41.0837   45.6637   61.0269 C   0  0  0  0  0  0  0  0  0  3  0  0
   40.0104   44.6191   61.3485 C   0  0  0  0  0  0  0  0  0  4  0  0
   40.0714   43.6840   60.1346 C   0  0  0  0  0  0  0  0  0  5  0  0
   41.3842   43.2718   59.9228 C   0  0  0  0  0  0  0  0  0  6  0  0
   42.4815   43.7222   60.7927 C   0  0  0  0  0  0  0  0  0  7  0  0
   41.2450   42.2229   58.5071 S   0  0  0  0  0  0  0  0  0  8  0  0
   39.5073   42.3874   58.2854 C   0  0  0  0  0  0  0  0  0  9  0  0
   39.1354   43.2200   59.2884 C   0  0  0  0  0  0  0  0  0 10  0  0
   37.6730   43.5144   59.3377 C   0  0  0  0  0  0  0  0  0 11  0  0
   37.2325   44.2876   60.2442 O   0  0  0  0  0  0  0  0  0 12  0  0
   36.8257   42.9330   58.3867 N   0  0  0  0  0  0  0  0  0 13  0  0
   37.3178   42.4519   57.1162 C   0  0  2  0  0  0  0  0  0 14  0  0
   38.6105   41.8361   57.3155 N   0  0  0  0  0  0  0  0  0 15  0  0
   37.3708   43.6021   56.1929 C   0  0  0  0  0  0  0  0  0 16  0  0
   36.6098   43.7327   55.0711 C   0  0  0  0  0  0  0  0  0 17  0  0
   36.7289   44.8525   54.2619 C   0  0  0  0  0  0  0  0  0 18  0  0
   37.6167   45.8725   54.5577 C   0  0  0  0  0  0  0  0  0 19  0  0
   38.3878   45.7381   55.6961 C   0  0  0  0  0  0  0  0  0 20  0  0
   38.2640   44.6217   56.4963 C   0  0  0  0  0  0  0  0  0 21  0  0
   39.2802   46.7684   55.9891 O   0  0  0  0  0  0  0  0  0 22  0  0
   37.7469   46.9996   53.7567 O   0  0  0  0  0  0  0  0  0 23  0  0
  1  2  1  1
  3  2  1  6
  3  4  1  0
  4  5  1  1
  5  6  2  0
  6  7  1  0
  7  2  1  1
  6  8  1  0
  8  9  1  0
  9 10  2  0
  5 10  1  0
 10 11  1  0
 11 12  2  0
 11 13  1  0
 13 14  1  0
 14 15  1  0
  9 15  1  0
 16 17  2  0
 17 18  1  0
 18 19  2  0
 19 20  1  0
 20 21  2  0
 16 21  1  0
 20 22  1  0
 19 23  1  0
 14 16  1  6
M  END
>  <fitscore>  (21) 
0.194919

$$$$
sQC_Substrate__STK536739_rank_21
     RDKit          3D

 23 26  0  0  0  0  0  0  0  0999 V2000
   42.4504   43.8370   63.0839 C   0  0  0  0  0  0  0  0  0  1  0  0
   42.1786   43.8450   61.6381 N   0  0  0  0  0  0  0  0  0  2  0  0
   41.1033   44.7705   61.3904 C   0  0  0  0  0  0  0  0  0  3  0  0
   39.7339   44.0900   61.4795 C   0  0  0  0  0  0  0  0  0  4  0  0
   39.7068   43.2144   60.2208 C   0  0  0  0  0  0  0  0  0  5  0  0
   40.8566   42.4313   60.1665 C   0  0  0  0  0  0  0  0  0  6  0  0
   41.8873   42.5051   61.2134 C   0  0  0  0  0  0  0  0  0  7  0  0
   40.6389   41.5134   58.6720 S   0  0  0  0  0  0  0  0  0  8  0  0
   39.0836   42.2007   58.2200 C   0  0  0  0  0  0  0  0  0  9  0  0
   38.8205   43.0783   59.2191 C   0  0  0  0  0  0  0  0  0 10  0  0
   37.5204   43.7987   59.0832 C   0  0  0  0  0  0  0  0  0 11  0  0
   37.1903   44.6431   59.9730 O   0  0  0  0  0  0  0  0  0 12  0  0
   36.6996   43.5270   57.9819 N   0  0  0  0  0  0  0  0  0 13  0  0
   37.2213   42.9555   56.7616 C   0  0  2  0  0  0  0  0  0 14  0  0
   38.2279   41.9731   57.0954 N   0  0  0  0  0  0  0  0  0 15  0  0
   37.7540   44.0615   55.9423 C   0  0  0  0  0  0  0  0  0 16  0  0
   39.0350   44.1434   55.4874 C   0  0  0  0  0  0  0  0  0 17  0  0
   39.4462   45.2239   54.7218 C   0  0  0  0  0  0  0  0  0 18  0  0
   38.5809   46.2527   54.3919 C   0  0  0  0  0  0  0  0  0 19  0  0
   37.2818   46.1679   54.8543 C   0  0  0  0  0  0  0  0  0 20  0  0
   36.8799   45.0903   55.6153 C   0  0  0  0  0  0  0  0  0 21  0  0
   36.4148   47.2069   54.5190 O   0  0  0  0  0  0  0  0  0 22  0  0
   38.9785   47.3411   53.6260 O   0  0  0  0  0  0  0  0  0 23  0  0
  1  2  1  1
  3  2  1  6
  3  4  1  0
  4  5  1  1
  5  6  2  0
  6  7  1  0
  7  2  1  1
  6  8  1  0
  8  9  1  0
  9 10  2  0
  5 10  1  0
 10 11  1  0
 11 12  2  0
 11 13  1  0
 13 14  1  0
 14 15  1  0
  9 15  1  0
 16 17  2  0
 17 18  1  0
 18 19  2  0
 19 20  1  0
 20 21  2  0
 16 21  1  0
 20 22  1  0
 19 23  1  0
 14 16  1  6
M  END
>  <fitscore>  (22) 
0.193556

$$$$
sQC_Substrate__STK536739_rank_22
     RDKit          3D

 23 26  0  0  0  0  0  0  0  0999 V2000
   42.7203   43.6597   63.1126 C   0  0  0  0  0  0  0  0  0  1  0  0
   42.4728   43.5861   61.6642 N   0  0  0  0  0  0  0  0  0  2  0  0
   41.7600   44.7743   61.2714 C   0  0  0  0  0  0  0  0  0  3  0  0
   40.2430   44.5893   61.3757 C   0  0  0  0  0  0  0  0  0  4  0  0
   39.9373   43.6287   60.2200 C   0  0  0  0  0  0  0  0  0  5  0  0
   40.7686   42.5148   60.3006 C   0  0  0  0  0  0  0  0  0  6  0  0
   41.7619   42.3728   61.3762 C   0  0  0  0  0  0  0  0  0  7  0  0
   40.2700   41.5486   58.9072 S   0  0  0  0  0  0  0  0  0  8  0  0
   39.0267   42.6447   58.3170 C   0  0  0  0  0  0  0  0  0  9  0  0
   39.0599   43.6708   59.2023 C   0  0  0  0  0  0  0  0  0 10  0  0
   38.0671   44.7523   58.9333 C   0  0  0  0  0  0  0  0  0 11  0  0
   38.0267   45.7560   59.7107 O   0  0  0  0  0  0  0  0  0 12  0  0
   37.2078   44.6341   57.8342 N   0  0  0  0  0  0  0  0  0 13  0  0
   37.5199   43.7858   56.7069 C   0  0  2  0  0  0  0  0  0 14  0  0
   38.1488   42.5765   57.1885 N   0  0  0  0  0  0  0  0  0 15  0  0
   38.3886   44.5557   55.7953 C   0  0  0  0  0  0  0  0  0 16  0  0
   39.3928   45.3841   56.1952 C   0  0  0  0  0  0  0  0  0 17  0  0
   40.1587   46.0684   55.2635 C   0  0  0  0  0  0  0  0  0 18  0  0
   39.9364   45.9391   53.9034 C   0  0  0  0  0  0  0  0  0 19  0  0
   38.9172   45.0983   53.4997 C   0  0  0  0  0  0  0  0  0 20  0  0
   38.1596   44.4209   54.4319 C   0  0  0  0  0  0  0  0  0 21  0  0
   38.6978   44.9720   52.1287 O   0  0  0  0  0  0  0  0  0 22  0  0
   40.6952   46.6180   52.9588 O   0  0  0  0  0  0  0  0  0 23  0  0
  1  2  1  1
  3  2  1  6
  3  4  1  0
  4  5  1  1
  5  6  2  0
  6  7  1  0
  7  2  1  1
  6  8  1  0
  8  9  1  0
  9 10  2  0
  5 10  1  0
 10 11  1  0
 11 12  2  0
 11 13  1  0
 13 14  1  0
 14 15  1  0
  9 15  1  0
 16 17  2  0
 17 18  1  0
 18 19  2  0
 19 20  1  0
 20 21  2  0
 16 21  1  0
 20 22  1  0
 19 23  1  0
 14 16  1  6
M  END
>  <fitscore>  (23) 
0.191949

$$$$
sQC_Substrate__STK536739_rank_23
     RDKit          3D

 23 26  0  0  0  0  0  0  0  0999 V2000
   44.5223   41.8325   61.0753 C   0  0  0  0  0  0  0  0  0  1  0  0
   43.5662   41.9671   59.9652 N   0  0  0  0  0  0  0  0  0  2  0  0
   43.1657   43.3481   59.8851 C   0  0  0  0  0  0  0  0  0  3  0  0
   41.9420   43.6380   60.7597 C   0  0  0  0  0  0  0  0  0  4  0  0
   40.8105   42.9262   60.0082 C   0  0  0  0  0  0  0  0  0  5  0  0
   41.1712   41.6058   59.7540 C   0  0  0  0  0  0  0  0  0  6  0  0
   42.4701   41.0668   60.1854 C   0  0  0  0  0  0  0  0  0  7  0  0
   39.7625   40.9697   58.8969 S   0  0  0  0  0  0  0  0  0  8  0  0
   38.8068   42.4467   58.9245 C   0  0  0  0  0  0  0  0  0  9  0  0
   39.6028   43.3293   59.5765 C   0  0  0  0  0  0  0  0  0 10  0  0
   39.0066   44.6861   59.7538 C   0  0  0  0  0  0  0  0  0 11  0  0
   39.6818   45.5800   60.3526 O   0  0  0  0  0  0  0  0  0 12  0  0
   37.7222   44.9390   59.2573 N   0  0  0  0  0  0  0  0  0 13  0  0
   37.1365   44.1379   58.2070 C   0  0  2  0  0  0  0  0  0 14  0  0
   37.5081   42.7554   58.4077 N   0  0  0  0  0  0  0  0  0 15  0  0
   37.6127   44.6746   56.9173 C   0  0  0  0  0  0  0  0  0 16  0  0
   38.8452   44.4411   56.3869 C   0  0  0  0  0  0  0  0  0 17  0  0
   39.2051   44.9894   55.1652 C   0  0  0  0  0  0  0  0  0 18  0  0
   38.3360   45.7882   54.4422 C   0  0  0  0  0  0  0  0  0 19  0  0
   37.0862   46.0240   54.9819 C   0  0  0  0  0  0  0  0  0 20  0  0
   36.7351   45.4753   56.1975 C   0  0  0  0  0  0  0  0  0 21  0  0
   36.2151   46.8291   54.2494 O   0  0  0  0  0  0  0  0  0 22  0  0
   38.6825   46.3442   53.2176 O   0  0  0  0  0  0  0  0  0 23  0  0
  1  2  1  1
  3  2  1  6
  3  4  1  0
  4  5  1  1
  5  6  2  0
  6  7  1  0
  7  2  1  1
  6  8  1  0
  8  9  1  0
  9 10  2  0
  5 10  1  0
 10 11  1  0
 11 12  2  0
 11 13  1  0
 13 14  1  0
 14 15  1  0
  9 15  1  0
 16 17  2  0
 17 18  1  0
 18 19  2  0
 19 20  1  0
 20 21  2  0
 16 21  1  0
 20 22  1  0
 19 23  1  0
 14 16  1  6
M  END
>  <fitscore>  (24) 
0.18095

$$$$
sQC_Substrate__STK536739_rank_24
     RDKit          3D

 23 26  0  0  0  0  0  0  0  0999 V2000
   37.7178   43.7684   63.9446 C   0  0  0  0  0  0  0  0  0  1  0  0
   37.8480   44.3276   62.5900 N   0  0  0  0  0  0  0  0  0  2  0  0
   37.5467   43.2838   61.6446 C   0  0  0  0  0  0  0  0  0  3  0  0
   38.7962   42.4858   61.2595 C   0  0  0  0  0  0  0  0  0  4  0  0
   39.5862   43.4831   60.4033 C   0  0  0  0  0  0  0  0  0  5  0  0
   39.7283   44.6854   61.0908 C   0  0  0  0  0  0  0  0  0  6  0  0
   39.1674   44.8719   62.4378 C   0  0  0  0  0  0  0  0  0  7  0  0
   40.6474   45.6822   59.9570 S   0  0  0  0  0  0  0  0  0  8  0  0
   40.7851   44.4832   58.6767 C   0  0  0  0  0  0  0  0  0  9  0  0
   40.1329   43.4056   59.1776 C   0  0  0  0  0  0  0  0  0 10  0  0
   40.1184   42.2168   58.2751 C   0  0  0  0  0  0  0  0  0 11  0  0
   39.5278   41.1604   58.6607 O   0  0  0  0  0  0  0  0  0 12  0  0
   40.7538   42.2954   57.0300 N   0  0  0  0  0  0  0  0  0 13  0  0
   41.0150   43.5607   56.3829 C   0  0  2  0  0  0  0  0  0 14  0  0
   41.3986   44.5303   57.3842 N   0  0  0  0  0  0  0  0  0 15  0  0
   39.7933   43.9493   55.6519 C   0  0  0  0  0  0  0  0  0 16  0  0
   39.5699   43.7086   54.3302 C   0  0  0  0  0  0  0  0  0 17  0  0
   38.3880   44.1120   53.7275 C   0  0  0  0  0  0  0  0  0 18  0  0
   37.3972   44.7689   54.4368 C   0  0  0  0  0  0  0  0  0 19  0  0
   37.6257   45.0121   55.7774 C   0  0  0  0  0  0  0  0  0 20  0  0
   38.8036   44.6081   56.3701 C   0  0  0  0  0  0  0  0  0 21  0  0
   36.6245   45.6740   56.4868 O   0  0  0  0  0  0  0  0  0 22  0  0
   36.2086   45.1788   53.8468 O   0  0  0  0  0  0  0  0  0 23  0  0
  1  2  1  1
  3  2  1  6
  3  4  1  0
  4  5  1  1
  5  6  2  0
  6  7  1  0
  7  2  1  1
  6  8  1  0
  8  9  1  0
  9 10  2  0
  5 10  1  0
 10 11  1  0
 11 12  2  0
 11 13  1  0
 13 14  1  0
 14 15  1  0
  9 15  1  0
 16 17  2  0
 17 18  1  0
 18 19  2  0
 19 20  1  0
 20 21  2  0
 16 21  1  0
 20 22  1  0
 19 23  1  0
 14 16  1  1
M  END
>  <fitscore>  (25) 
0.17607

$$$$
sQC_Substrate__STK536739_rank_25
     RDKit          3D

 23 26  0  0  0  0  0  0  0  0999 V2000
   43.1589   43.8618   62.7594 C   0  0  0  0  0  0  0  0  0  1  0  0
   42.7656   43.8671   61.3417 N   0  0  0  0  0  0  0  0  0  2  0  0
   41.8797   44.9821   61.1276 C   0  0  0  0  0  0  0  0  0  3  0  0
   40.4153   44.5999   61.3644 C   0  0  0  0  0  0  0  0  0  4  0  0
   40.1008   43.6984   60.1643 C   0  0  0  0  0  0  0  0  0  5  0  0
   41.0610   42.6954   60.0639 C   0  0  0  0  0  0  0  0  0  6  0  0
   42.1752   42.5990   61.0194 C   0  0  0  0  0  0  0  0  0  7  0  0
   40.5309   41.7820   58.6467 S   0  0  0  0  0  0  0  0  0  8  0  0
   39.1105   42.7539   58.2812 C   0  0  0  0  0  0  0  0  0  9  0  0
   39.1190   43.7062   59.2459 C   0  0  0  0  0  0  0  0  0 10  0  0
   37.9826   44.6710   59.1727 C   0  0  0  0  0  0  0  0  0 11  0  0
   37.9093   45.6001   60.0358 O   0  0  0  0  0  0  0  0  0 12  0  0
   37.0288   44.5287   58.1577 N   0  0  0  0  0  0  0  0  0 13  0  0
   37.3139   43.8141   56.9346 C   0  0  2  0  0  0  0  0  0 14  0  0
   38.1293   42.6609   57.2432 N   0  0  0  0  0  0  0  0  0 15  0  0
   37.9816   44.7540   56.0133 C   0  0  0  0  0  0  0  0  0 16  0  0
   38.0824   46.0973   56.2133 C   0  0  0  0  0  0  0  0  0 17  0  0
   38.7302   46.9035   55.2895 C   0  0  0  0  0  0  0  0  0 18  0  0
   39.2950   46.3817   54.1385 C   0  0  0  0  0  0  0  0  0 19  0  0
   39.1918   45.0188   53.9374 C   0  0  0  0  0  0  0  0  0 20  0  0
   38.5461   44.2231   54.8605 C   0  0  0  0  0  0  0  0  0 21  0  0
   39.7625   44.4988   52.7766 O   0  0  0  0  0  0  0  0  0 22  0  0
   39.9468   47.1766   53.2046 O   0  0  0  0  0  0  0  0  0 23  0  0
  1  2  1  1
  3  2  1  6
  3  4  1  0
  4  5  1  1
  5  6  2  0
  6  7  1  0
  7  2  1  1
  6  8  1  0
  8  9  1  0
  9 10  2  0
  5 10  1  0
 10 11  1  0
 11 12  2  0
 11 13  1  0
 13 14  1  0
 14 15  1  0
  9 15  1  0
 16 17  2  0
 17 18  1  0
 18 19  2  0
 19 20  1  0
 20 21  2  0
 16 21  1  0
 20 22  1  0
 19 23  1  0
 14 16  1  6
M  END
>  <fitscore>  (26) 
0.147466

$$$$
sQC_Substrate__STK536739_rank_26
     RDKit          3D

 23 26  0  0  0  0  0  0  0  0999 V2000
   43.1861   44.0425   62.5889 C   0  0  0  0  0  0  0  0  0  1  0  0
   42.7421   43.8361   61.2016 N   0  0  0  0  0  0  0  0  0  2  0  0
   41.9128   44.9523   60.8268 C   0  0  0  0  0  0  0  0  0  3  0  0
   40.4390   44.7055   61.1635 C   0  0  0  0  0  0  0  0  0  4  0  0
   40.0307   43.6381   60.1409 C   0  0  0  0  0  0  0  0  0  5  0  0
   40.9288   42.5753   60.1849 C   0  0  0  0  0  0  0  0  0  6  0  0
   42.0701   42.5709   61.1129 C   0  0  0  0  0  0  0  0  0  7  0  0
   40.2968   41.4733   58.9562 S   0  0  0  0  0  0  0  0  0  8  0  0
   38.9207   42.4563   58.4705 C   0  0  0  0  0  0  0  0  0  9  0  0
   39.0180   43.5534   59.2608 C   0  0  0  0  0  0  0  0  0 10  0  0
   37.9355   44.5606   59.0568 C   0  0  0  0  0  0  0  0  0 11  0  0
   37.9461   45.6229   59.7531 O   0  0  0  0  0  0  0  0  0 12  0  0
   36.9387   44.3103   58.1061 N   0  0  0  0  0  0  0  0  0 13  0  0
   37.1383   43.3862   57.0133 C   0  0  2  0  0  0  0  0  0 14  0  0
   37.8984   42.2524   57.4896 N   0  0  0  0  0  0  0  0  0 15  0  0
   37.8235   44.1170   55.9296 C   0  0  0  0  0  0  0  0  0 16  0  0
   38.8310   43.6090   55.1668 C   0  0  0  0  0  0  0  0  0 17  0  0
   39.4162   44.3725   54.1681 C   0  0  0  0  0  0  0  0  0 18  0  0
   39.0050   45.6684   53.9081 C   0  0  0  0  0  0  0  0  0 19  0  0
   37.9829   46.1820   54.6829 C   0  0  0  0  0  0  0  0  0 20  0  0
   37.4056   45.4168   55.6744 C   0  0  0  0  0  0  0  0  0 21  0  0
   37.5729   47.4876   54.4166 O   0  0  0  0  0  0  0  0  0 22  0  0
   39.5817   46.4449   52.9114 O   0  0  0  0  0  0  0  0  0 23  0  0
  1  2  1  1
  3  2  1  6
  3  4  1  0
  4  5  1  1
  5  6  2  0
  6  7  1  0
  7  2  1  1
  6  8  1  0
  8  9  1  0
  9 10  2  0
  5 10  1  0
 10 11  1  0
 11 12  2  0
 11 13  1  0
 13 14  1  0
 14 15  1  0
  9 15  1  0
 16 17  2  0
 17 18  1  0
 18 19  2  0
 19 20  1  0
 20 21  2  0
 16 21  1  0
 20 22  1  0
 19 23  1  0
 14 16  1  6
M  END
>  <fitscore>  (27) 
0.143009

$$$$
sQC_Substrate__STK536739_rank_27
     RDKit          3D

 23 26  0  0  0  0  0  0  0  0999 V2000
   40.5426   42.3459   64.0396 C   0  0  0  0  0  0  0  0  0  1  0  0
   40.4669   43.1745   62.8263 N   0  0  0  0  0  0  0  0  0  2  0  0
   39.2218   42.8840   62.1634 C   0  0  0  0  0  0  0  0  0  3  0  0
   39.3622   41.7276   61.1687 C   0  0  0  0  0  0  0  0  0  4  0  0
   40.1950   42.3485   60.0406 C   0  0  0  0  0  0  0  0  0  5  0  0
   41.3402   42.9375   60.5696 C   0  0  0  0  0  0  0  0  0  6  0  0
   41.6207   42.9130   62.0134 C   0  0  0  0  0  0  0  0  0  7  0  0
   42.1488   43.5846   59.1374 S   0  0  0  0  0  0  0  0  0  8  0  0
   40.9574   43.0529   57.9570 C   0  0  0  0  0  0  0  0  0  9  0  0
   40.0236   42.4205   58.7092 C   0  0  0  0  0  0  0  0  0 10  0  0
   38.8866   41.8473   57.9305 C   0  0  0  0  0  0  0  0  0 11  0  0
   37.9620   41.2375   58.5524 O   0  0  0  0  0  0  0  0  0 12  0  0
   38.8674   41.9953   56.5383 N   0  0  0  0  0  0  0  0  0 13  0  0
   39.6132   43.0366   55.8694 C   0  0  2  0  0  0  0  0  0 14  0  0
   40.8849   43.2060   56.5356 N   0  0  0  0  0  0  0  0  0 15  0  0
   38.7899   44.2613   55.8929 C   0  0  0  0  0  0  0  0  0 16  0  0
   38.3814   44.9005   57.0240 C   0  0  0  0  0  0  0  0  0 17  0  0
   37.6078   46.0487   56.9476 C   0  0  0  0  0  0  0  0  0 18  0  0
   37.2229   46.5868   55.7317 C   0  0  0  0  0  0  0  0  0 19  0  0
   37.6383   45.9370   54.5854 C   0  0  0  0  0  0  0  0  0 20  0  0
   38.4076   44.7955   54.6690 C   0  0  0  0  0  0  0  0  0 21  0  0
   37.2478   46.4833   53.3637 O   0  0  0  0  0  0  0  0  0 22  0  0
   36.4483   47.7359   55.6396 O   0  0  0  0  0  0  0  0  0 23  0  0
  1  2  1  1
  3  2  1  6
  3  4  1  0
  4  5  1  1
  5  6  2  0
  6  7  1  0
  7  2  1  1
  6  8  1  0
  8  9  1  0
  9 10  2  0
  5 10  1  0
 10 11  1  0
 11 12  2  0
 11 13  1  0
 13 14  1  0
 14 15  1  0
  9 15  1  0
 16 17  2  0
 17 18  1  0
 18 19  2  0
 19 20  1  0
 20 21  2  0
 16 21  1  0
 20 22  1  0
 19 23  1  0
 14 16  1  1
M  END
>  <fitscore>  (28) 
0.132305

$$$$
sQC_Substrate__STK536739_rank_28
     RDKit          3D

 23 26  0  0  0  0  0  0  0  0999 V2000
   42.8111   44.8051   62.5287 C   0  0  0  0  0  0  0  0  0  1  0  0
   42.4135   44.6753   61.1181 N   0  0  0  0  0  0  0  0  0  2  0  0
   41.1219   45.2923   60.9592 C   0  0  0  0  0  0  0  0  0  3  0  0
   39.9819   44.2987   61.2032 C   0  0  0  0  0  0  0  0  0  4  0  0
   40.0595   43.3837   59.9750 C   0  0  0  0  0  0  0  0  0  5  0  0
   41.3592   42.9084   59.8228 C   0  0  0  0  0  0  0  0  0  6  0  0
   42.4305   43.2861   60.7574 C   0  0  0  0  0  0  0  0  0  7  0  0
   41.2420   41.8938   58.3804 S   0  0  0  0  0  0  0  0  0  8  0  0
   39.5289   42.1514   58.0727 C   0  0  0  0  0  0  0  0  0  9  0  0
   39.1472   42.9838   59.0722 C   0  0  0  0  0  0  0  0  0 10  0  0
   37.7009   43.3521   59.0520 C   0  0  0  0  0  0  0  0  0 11  0  0
   37.2529   44.1304   59.9503 O   0  0  0  0  0  0  0  0  0 12  0  0
   36.8767   42.8323   58.0467 N   0  0  0  0  0  0  0  0  0 13  0  0
   37.4100   42.3494   56.7936 C   0  0  2  0  0  0  0  0  0 14  0  0
   38.6577   41.6645   57.0466 N   0  0  0  0  0  0  0  0  0 15  0  0
   37.5695   43.5119   55.8983 C   0  0  0  0  0  0  0  0  0 16  0  0
   36.6571   43.9052   54.9668 C   0  0  0  0  0  0  0  0  0 17  0  0
   36.8942   45.0137   54.1683 C   0  0  0  0  0  0  0  0  0 18  0  0
   38.0554   45.7583   54.2838 C   0  0  0  0  0  0  0  0  0 19  0  0
   38.9797   45.3577   55.2292 C   0  0  0  0  0  0  0  0  0 20  0  0
   38.7372   44.2541   56.0199 C   0  0  0  0  0  0  0  0  0 21  0  0
   40.1474   46.1112   55.3411 O   0  0  0  0  0  0  0  0  0 22  0  0
   38.3066   46.8707   53.4911 O   0  0  0  0  0  0  0  0  0 23  0  0
  1  2  1  1
  3  2  1  6
  3  4  1  0
  4  5  1  1
  5  6  2  0
  6  7  1  0
  7  2  1  1
  6  8  1  0
  8  9  1  0
  9 10  2  0
  5 10  1  0
 10 11  1  0
 11 12  2  0
 11 13  1  0
 13 14  1  0
 14 15  1  0
  9 15  1  0
 16 17  2  0
 17 18  1  0
 18 19  2  0
 19 20  1  0
 20 21  2  0
 16 21  1  0
 20 22  1  0
 19 23  1  0
 14 16  1  6
M  END
>  <fitscore>  (29) 
0.131775

$$$$
sQC_Substrate__STK536739_rank_29
     RDKit          3D

 23 26  0  0  0  0  0  0  0  0999 V2000
   38.0051   45.3349   64.1325 C   0  0  0  0  0  0  0  0  0  1  0  0
   38.5762   45.5257   62.7901 N   0  0  0  0  0  0  0  0  0  2  0  0
   37.5806   45.1435   61.8222 C   0  0  0  0  0  0  0  0  0  3  0  0
   37.6692   43.6551   61.4711 C   0  0  0  0  0  0  0  0  0  4  0  0
   38.9650   43.5748   60.6549 C   0  0  0  0  0  0  0  0  0  5  0  0
   40.0048   44.1731   61.3614 C   0  0  0  0  0  0  0  0  0  6  0  0
   39.7902   44.7662   62.6903 C   0  0  0  0  0  0  0  0  0  7  0  0
   41.3835   43.9815   60.2724 S   0  0  0  0  0  0  0  0  0  8  0  0
   40.5268   43.1450   58.9831 C   0  0  0  0  0  0  0  0  0  9  0  0
   39.2563   43.0591   59.4481 C   0  0  0  0  0  0  0  0  0 10  0  0
   38.3081   42.3604   58.5314 C   0  0  0  0  0  0  0  0  0 11  0  0
   37.0942   42.2342   58.8834 O   0  0  0  0  0  0  0  0  0 12  0  0
   38.7786   41.8630   57.3101 N   0  0  0  0  0  0  0  0  0 13  0  0
   39.9789   42.3728   56.6878 C   0  0  2  0  0  0  0  0  0 14  0  0
   40.9604   42.6462   57.7134 N   0  0  0  0  0  0  0  0  0 15  0  0
   39.6070   43.5769   55.9195 C   0  0  0  0  0  0  0  0  0 16  0  0
   40.4686   44.3117   55.1629 C   0  0  0  0  0  0  0  0  0 17  0  0
   40.0270   45.4312   54.4740 C   0  0  0  0  0  0  0  0  0 18  0  0
   38.7066   45.8435   54.5263 C   0  0  0  0  0  0  0  0  0 19  0  0
   37.8342   45.0968   55.2944 C   0  0  0  0  0  0  0  0  0 20  0  0
   38.2804   43.9845   55.9769 C   0  0  0  0  0  0  0  0  0 21  0  0
   36.5057   45.5166   55.3435 O   0  0  0  0  0  0  0  0  0 22  0  0
   38.2500   46.9624   53.8418 O   0  0  0  0  0  0  0  0  0 23  0  0
  1  2  1  1
  3  2  1  6
  3  4  1  0
  4  5  1  1
  5  6  2  0
  6  7  1  0
  7  2  1  1
  6  8  1  0
  8  9  1  0
  9 10  2  0
  5 10  1  0
 10 11  1  0
 11 12  2  0
 11 13  1  0
 13 14  1  0
 14 15  1  0
  9 15  1  0
 16 17  2  0
 17 18  1  0
 18 19  2  0
 19 20  1  0
 20 21  2  0
 16 21  1  0
 20 22  1  0
 19 23  1  0
 14 16  1  1
M  END
>  <fitscore>  (30) 
0.128139

$$$$
sQC_Substrate__STK536739_rank_30
     RDKit          3D

 23 26  0  0  0  0  0  0  0  0999 V2000
   42.7666   44.0378   63.2282 C   0  0  0  0  0  0  0  0  0  1  0  0
   42.4299   44.2529   61.8123 N   0  0  0  0  0  0  0  0  0  2  0  0
   41.0526   44.6674   61.7383 C   0  0  0  0  0  0  0  0  0  3  0  0
   40.1036   43.4714   61.6141 C   0  0  0  0  0  0  0  0  0  4  0  0
   40.3708   42.9718   60.1891 C   0  0  0  0  0  0  0  0  0  5  0  0
   41.7375   42.7814   60.0049 C   0  0  0  0  0  0  0  0  0  6  0  0
   42.7031   43.0477   61.0822 C   0  0  0  0  0  0  0  0  0  7  0  0
   41.8357   42.2168   58.3330 S   0  0  0  0  0  0  0  0  0  8  0  0
   40.1113   42.2649   57.9863 C   0  0  0  0  0  0  0  0  0  9  0  0
   39.5649   42.7017   59.1475 C   0  0  0  0  0  0  0  0  0 10  0  0
   38.0769   42.8161   59.1263 C   0  0  0  0  0  0  0  0  0 11  0  0
   37.4771   43.2198   60.1707 O   0  0  0  0  0  0  0  0  0 12  0  0
   37.3813   42.4767   57.9595 N   0  0  0  0  0  0  0  0  0 13  0  0
   38.0200   42.4674   56.6634 C   0  0  2  0  0  0  0  0  0 14  0  0
   39.3642   41.9547   56.8055 N   0  0  0  0  0  0  0  0  0 15  0  0
   37.9886   43.8470   56.1399 C   0  0  0  0  0  0  0  0  0 16  0  0
   37.1062   44.8067   56.5336 C   0  0  0  0  0  0  0  0  0 17  0  0
   37.1530   46.0790   55.9841 C   0  0  0  0  0  0  0  0  0 18  0  0
   38.0884   46.4223   55.0233 C   0  0  0  0  0  0  0  0  0 19  0  0
   38.9827   45.4473   54.6253 C   0  0  0  0  0  0  0  0  0 20  0  0
   38.9303   44.1841   55.1761 C   0  0  0  0  0  0  0  0  0 21  0  0
   39.9225   45.7987   53.6573 O   0  0  0  0  0  0  0  0  0 22  0  0
   38.1473   47.6922   54.4641 O   0  0  0  0  0  0  0  0  0 23  0  0
  1  2  1  1
  3  2  1  6
  3  4  1  0
  4  5  1  1
  5  6  2  0
  6  7  1  0
  7  2  1  1
  6  8  1  0
  8  9  1  0
  9 10  2  0
  5 10  1  0
 10 11  1  0
 11 12  2  0
 11 13  1  0
 13 14  1  0
 14 15  1  0
  9 15  1  0
 16 17  2  0
 17 18  1  0
 18 19  2  0
 19 20  1  0
 20 21  2  0
 16 21  1  0
 20 22  1  0
 19 23  1  0
 14 16  1  1
M  END
>  <fitscore>  (31) 
0.0877976

$$$$
sQC_Substrate__STK536739_rank_31
     RDKit          3D

 23 26  0  0  0  0  0  0  0  0999 V2000
   39.0492   45.2974   63.1756 C   0  0  0  0  0  0  0  0  0  1  0  0
   39.4368   44.8426   61.8311 N   0  0  0  0  0  0  0  0  0  2  0  0
   38.8826   45.7620   60.8711 C   0  0  0  0  0  0  0  0  0  3  0  0
   37.4762   45.3455   60.4294 C   0  0  0  0  0  0  0  0  0  4  0  0
   37.7431   44.1016   59.5732 C   0  0  0  0  0  0  0  0  0  5  0  0
   38.5309   43.2003   60.2840 C   0  0  0  0  0  0  0  0  0  6  0  0
   38.9884   43.4909   61.6515 C   0  0  0  0  0  0  0  0  0  7  0  0
   38.7232   41.8614   59.1465 S   0  0  0  0  0  0  0  0  0  8  0  0
   37.7768   42.5539   57.8347 C   0  0  0  0  0  0  0  0  0  9  0  0
   37.3725   43.7493   58.3299 C   0  0  0  0  0  0  0  0  0 10  0  0
   36.5194   44.5470   57.4007 C   0  0  0  0  0  0  0  0  0 11  0  0
   36.0949   45.6829   57.7792 O   0  0  0  0  0  0  0  0  0 12  0  0
   36.2091   44.0254   56.1390 N   0  0  0  0  0  0  0  0  0 13  0  0
   37.0168   43.0032   55.5140 C   0  0  2  0  0  0  0  0  0 14  0  0
   37.4590   42.0699   56.5256 N   0  0  0  0  0  0  0  0  0 15  0  0
   38.1382   43.6758   54.8299 C   0  0  0  0  0  0  0  0  0 16  0  0
   38.1876   43.9384   53.4945 C   0  0  0  0  0  0  0  0  0 17  0  0
   39.2863   44.5769   52.9392 C   0  0  0  0  0  0  0  0  0 18  0  0
   40.3663   44.9693   53.7110 C   0  0  0  0  0  0  0  0  0 19  0  0
   40.3143   44.7020   55.0654 C   0  0  0  0  0  0  0  0  0 20  0  0
   39.2184   44.0667   55.6108 C   0  0  0  0  0  0  0  0  0 21  0  0
   41.4048   45.0994   55.8378 O   0  0  0  0  0  0  0  0  0 22  0  0
   41.4732   45.6094   53.1689 O   0  0  0  0  0  0  0  0  0 23  0  0
  1  2  1  1
  3  2  1  6
  3  4  1  0
  4  5  1  1
  5  6  2  0
  6  7  1  0
  7  2  1  1
  6  8  1  0
  8  9  1  0
  9 10  2  0
  5 10  1  0
 10 11  1  0
 11 12  2  0
 11 13  1  0
 13 14  1  0
 14 15  1  0
  9 15  1  0
 16 17  2  0
 17 18  1  0
 18 19  2  0
 19 20  1  0
 20 21  2  0
 16 21  1  0
 20 22  1  0
 19 23  1  0
 14 16  1  1
M  END
>  <fitscore>  (32) 
0.0847991

$$$$
sQC_Substrate__STK536739_rank_32
     RDKit          3D

 23 26  0  0  0  0  0  0  0  0999 V2000
   44.4933   42.7765   61.2100 C   0  0  0  0  0  0  0  0  0  1  0  0
   43.6070   42.8214   60.0366 N   0  0  0  0  0  0  0  0  0  2  0  0
   42.9712   44.1133   60.0057 C   0  0  0  0  0  0  0  0  0  3  0  0
   41.6583   44.1212   60.7948 C   0  0  0  0  0  0  0  0  0  4  0  0
   40.7273   43.2786   59.9145 C   0  0  0  0  0  0  0  0  0  5  0  0
   41.3360   42.0632   59.6132 C   0  0  0  0  0  0  0  0  0  6  0  0
   42.6780   41.7300   60.1150 C   0  0  0  0  0  0  0  0  0  7  0  0
   40.1266   41.2541   58.6100 S   0  0  0  0  0  0  0  0  0  8  0  0
   38.9215   42.5355   58.6474 C   0  0  0  0  0  0  0  0  0  9  0  0
   39.4994   43.4944   59.4117 C   0  0  0  0  0  0  0  0  0 10  0  0
   38.6584   44.7098   59.6198 C   0  0  0  0  0  0  0  0  0 11  0  0
   39.1193   45.6625   60.3222 O   0  0  0  0  0  0  0  0  0 12  0  0
   37.3865   44.7695   59.0375 N   0  0  0  0  0  0  0  0  0 13  0  0
   37.0276   43.9560   57.8985 C   0  0  2  0  0  0  0  0  0 14  0  0
   37.6270   42.6488   58.0470 N   0  0  0  0  0  0  0  0  0 15  0  0
   37.4870   44.6590   56.6848 C   0  0  0  0  0  0  0  0  0 16  0  0
   37.3766   46.0002   56.4760 C   0  0  0  0  0  0  0  0  0 17  0  0
   37.8381   46.5735   55.3008 C   0  0  0  0  0  0  0  0  0 18  0  0
   38.4236   45.8144   54.3023 C   0  0  0  0  0  0  0  0  0 19  0  0
   38.5347   44.4540   54.5160 C   0  0  0  0  0  0  0  0  0 20  0  0
   38.0735   43.8907   55.6873 C   0  0  0  0  0  0  0  0  0 21  0  0
   39.1252   43.6945   53.5070 O   0  0  0  0  0  0  0  0  0 22  0  0
   38.8903   46.3746   53.1202 O   0  0  0  0  0  0  0  0  0 23  0  0
  1  2  1  1
  3  2  1  6
  3  4  1  0
  4  5  1  1
  5  6  2  0
  6  7  1  0
  7  2  1  1
  6  8  1  0
  8  9  1  0
  9 10  2  0
  5 10  1  0
 10 11  1  0
 11 12  2  0
 11 13  1  0
 13 14  1  0
 14 15  1  0
  9 15  1  0
 16 17  2  0
 17 18  1  0
 18 19  2  0
 19 20  1  0
 20 21  2  0
 16 21  1  0
 20 22  1  0
 19 23  1  0
 14 16  1  6
M  END
>  <fitscore>  (33) 
0.0815079

$$$$
sQC_Substrate__STK536739_rank_33
     RDKit          3D

 23 26  0  0  0  0  0  0  0  0999 V2000
   45.4248   43.8103   57.9907 C   0  0  0  0  0  0  0  0  0  1  0  0
   44.0723   43.5092   57.4962 N   0  0  0  0  0  0  0  0  0  2  0  0
   43.2661   44.6925   57.6506 C   0  0  0  0  0  0  0  0  0  3  0  0
   42.5793   44.7393   59.0190 C   0  0  0  0  0  0  0  0  0  4  0  0
   41.5204   43.6358   58.9061 C   0  0  0  0  0  0  0  0  0  5  0  0
   42.1171   42.4518   58.4814 C   0  0  0  0  0  0  0  0  0  6  0  0
   43.5604   42.3729   58.2084 C   0  0  0  0  0  0  0  0  0  7  0  0
   40.7564   41.3260   58.4141 S   0  0  0  0  0  0  0  0  0  8  0  0
   39.5136   42.4565   58.9369 C   0  0  0  0  0  0  0  0  0  9  0  0
   40.1953   43.6120   59.1313 C   0  0  0  0  0  0  0  0  0 10  0  0
   39.3571   44.7523   59.6055 C   0  0  0  0  0  0  0  0  0 11  0  0
   39.9106   45.8766   59.8131 O   0  0  0  0  0  0  0  0  0 12  0  0
   37.9859   44.5552   59.8089 N   0  0  0  0  0  0  0  0  0 13  0  0
   37.2637   43.4814   59.1660 C   0  0  2  0  0  0  0  0  0 14  0  0
   38.1035   42.3052   59.1308 N   0  0  0  0  0  0  0  0  0 15  0  0
   36.8772   43.9462   57.8196 C   0  0  0  0  0  0  0  0  0 16  0  0
   36.8161   43.1547   56.7130 C   0  0  0  0  0  0  0  0  0 17  0  0
   36.4414   43.6815   55.4863 C   0  0  0  0  0  0  0  0  0 18  0  0
   36.1175   45.0191   55.3375 C   0  0  0  0  0  0  0  0  0 19  0  0
   36.1802   45.8204   56.4612 C   0  0  0  0  0  0  0  0  0 20  0  0
   36.5536   45.2896   57.6780 C   0  0  0  0  0  0  0  0  0 21  0  0
   35.8530   47.1666   56.3055 O   0  0  0  0  0  0  0  0  0 22  0  0
   35.7406   45.5607   54.1154 O   0  0  0  0  0  0  0  0  0 23  0  0
  1  2  1  1
  3  2  1  6
  3  4  1  0
  4  5  1  1
  5  6  2  0
  6  7  1  0
  7  2  1  1
  6  8  1  0
  8  9  1  0
  9 10  2  0
  5 10  1  0
 10 11  1  0
 11 12  2  0
 11 13  1  0
 13 14  1  0
 14 15  1  0
  9 15  1  0
 16 17  2  0
 17 18  1  0
 18 19  2  0
 19 20  1  0
 20 21  2  0
 16 21  1  0
 20 22  1  0
 19 23  1  0
 14 16  1  6
M  END
>  <fitscore>  (34) 
0.0808642

$$$$
sQC_Substrate__STK536739_rank_34
     RDKit          3D

 23 26  0  0  0  0  0  0  0  0999 V2000
   42.7387   43.4089   62.7032 C   0  0  0  0  0  0  0  0  0  1  0  0
   42.3041   43.1885   61.3150 N   0  0  0  0  0  0  0  0  0  2  0  0
   41.8181   44.4403   60.7946 C   0  0  0  0  0  0  0  0  0  3  0  0
   40.3213   44.6259   61.0622 C   0  0  0  0  0  0  0  0  0  4  0  0
   39.6774   43.6068   60.1143 C   0  0  0  0  0  0  0  0  0  5  0  0
   40.2556   42.3547   60.3053 C   0  0  0  0  0  0  0  0  0  6  0  0
   41.3209   42.1429   61.2973 C   0  0  0  0  0  0  0  0  0  7  0  0
   39.3942   41.3406   59.1420 S   0  0  0  0  0  0  0  0  0  8  0  0
   38.3499   42.5976   58.4901 C   0  0  0  0  0  0  0  0  0  9  0  0
   38.7103   43.7040   59.1856 C   0  0  0  0  0  0  0  0  0 10  0  0
   37.9454   44.9351   58.8293 C   0  0  0  0  0  0  0  0  0 11  0  0
   38.2163   46.0215   59.4292 O   0  0  0  0  0  0  0  0  0 12  0  0
   36.9515   44.8622   57.8458 N   0  0  0  0  0  0  0  0  0 13  0  0
   36.9339   43.8132   56.8523 C   0  0  2  0  0  0  0  0  0 14  0  0
   37.3451   42.5730   57.4709 N   0  0  0  0  0  0  0  0  0 15  0  0
   37.8272   44.2248   55.7519 C   0  0  0  0  0  0  0  0  0 16  0  0
   38.8734   43.4886   55.2848 C   0  0  0  0  0  0  0  0  0 17  0  0
   39.6599   43.9582   54.2437 C   0  0  0  0  0  0  0  0  0 18  0  0
   39.4166   45.1813   53.6429 C   0  0  0  0  0  0  0  0  0 19  0  0
   38.3549   45.9266   54.1182 C   0  0  0  0  0  0  0  0  0 20  0  0
   37.5769   45.4532   55.1539 C   0  0  0  0  0  0  0  0  0 21  0  0
   38.1146   47.1575   53.5094 O   0  0  0  0  0  0  0  0  0 22  0  0
   40.1957   45.6645   52.5996 O   0  0  0  0  0  0  0  0  0 23  0  0
  1  2  1  1
  3  2  1  6
  3  4  1  0
  4  5  1  1
  5  6  2  0
  6  7  1  0
  7  2  1  1
  6  8  1  0
  8  9  1  0
  9 10  2  0
  5 10  1  0
 10 11  1  0
 11 12  2  0
 11 13  1  0
 13 14  1  0
 14 15  1  0
  9 15  1  0
 16 17  2  0
 17 18  1  0
 18 19  2  0
 19 20  1  0
 20 21  2  0
 16 21  1  0
 20 22  1  0
 19 23  1  0
 14 16  1  6
M  END
>  <fitscore>  (35) 
0.0746638

$$$$
sQC_Substrate__STK536739_rank_35
     RDKit          3D

 23 26  0  0  0  0  0  0  0  0999 V2000
   43.1922   44.0671   62.4756 C   0  0  0  0  0  0  0  0  0  1  0  0
   42.7414   44.1177   61.0761 N   0  0  0  0  0  0  0  0  0  2  0  0
   41.5516   44.9271   61.0186 C   0  0  0  0  0  0  0  0  0  3  0  0
   40.2841   44.0924   61.2265 C   0  0  0  0  0  0  0  0  0  4  0  0
   40.1919   43.2845   59.9264 C   0  0  0  0  0  0  0  0  0  5  0  0
   41.4023   42.6402   59.6850 C   0  0  0  0  0  0  0  0  0  6  0  0
   42.5428   42.7769   60.6039 C   0  0  0  0  0  0  0  0  0  7  0  0
   41.0970   41.7807   58.1712 S   0  0  0  0  0  0  0  0  0  8  0  0
   39.4332   42.3098   57.9532 C   0  0  0  0  0  0  0  0  0  9  0  0
   39.2062   43.1001   59.0310 C   0  0  0  0  0  0  0  0  0 10  0  0
   37.8304   43.6748   59.0978 C   0  0  0  0  0  0  0  0  0 11  0  0
   37.5271   44.4301   60.0731 O   0  0  0  0  0  0  0  0  0 12  0  0
   36.9112   43.3682   58.0872 N   0  0  0  0  0  0  0  0  0 13  0  0
   37.3328   42.9222   56.7791 C   0  0  2  0  0  0  0  0  0 14  0  0
   38.4718   42.0442   56.9265 N   0  0  0  0  0  0  0  0  0 15  0  0
   37.6381   44.1215   55.9750 C   0  0  0  0  0  0  0  0  0 16  0  0
   37.5759   44.1813   54.6158 C   0  0  0  0  0  0  0  0  0 17  0  0
   37.8816   45.3556   53.9446 C   0  0  0  0  0  0  0  0  0 18  0  0
   38.2586   46.5029   54.6210 C   0  0  0  0  0  0  0  0  0 19  0  0
   38.3212   46.4402   55.9997 C   0  0  0  0  0  0  0  0  0 20  0  0
   38.0157   45.2690   56.6606 C   0  0  0  0  0  0  0  0  0 21  0  0
   38.7014   47.5987   56.6757 O   0  0  0  0  0  0  0  0  0 22  0  0
   38.5677   47.6860   53.9624 O   0  0  0  0  0  0  0  0  0 23  0  0
  1  2  1  1
  3  2  1  6
  3  4  1  0
  4  5  1  1
  5  6  2  0
  6  7  1  0
  7  2  1  1
  6  8  1  0
  8  9  1  0
  9 10  2  0
  5 10  1  0
 10 11  1  0
 11 12  2  0
 11 13  1  0
 13 14  1  0
 14 15  1  0
  9 15  1  0
 16 17  2  0
 17 18  1  0
 18 19  2  0
 19 20  1  0
 20 21  2  0
 16 21  1  0
 20 22  1  0
 19 23  1  0
 14 16  1  6
M  END
>  <fitscore>  (36) 
0.0587138

$$$$
sQC_Substrate__STK536739_rank_36
     RDKit          3D

 23 26  0  0  0  0  0  0  0  0999 V2000
   45.1765   43.4847   59.8662 C   0  0  0  0  0  0  0  0  0  1  0  0
   44.1063   43.5252   58.8575 N   0  0  0  0  0  0  0  0  0  2  0  0
   43.1273   44.4919   59.2829 C   0  0  0  0  0  0  0  0  0  3  0  0
   42.0480   43.8589   60.1666 C   0  0  0  0  0  0  0  0  0  4  0  0
   41.2521   43.0048   59.1722 C   0  0  0  0  0  0  0  0  0  5  0  0
   42.1191   42.1825   58.4577 C   0  0  0  0  0  0  0  0  0  6  0  0
   43.5704   42.2033   58.6965 C   0  0  0  0  0  0  0  0  0  7  0  0
   41.0289   41.2966   57.3852 S   0  0  0  0  0  0  0  0  0  8  0  0
   39.5329   42.0455   57.9300 C   0  0  0  0  0  0  0  0  0  9  0  0
   39.9417   42.9160   58.8854 C   0  0  0  0  0  0  0  0  0 10  0  0
   38.8391   43.6840   59.5351 C   0  0  0  0  0  0  0  0  0 11  0  0
   39.1281   44.5253   60.4419 O   0  0  0  0  0  0  0  0  0 12  0  0
   37.5178   43.4588   59.1303 N   0  0  0  0  0  0  0  0  0 13  0  0
   37.1992   42.8886   57.8414 C   0  0  2  0  0  0  0  0  0 14  0  0
   38.1713   41.8661   57.5265 N   0  0  0  0  0  0  0  0  0 15  0  0
   37.1891   43.9879   56.8567 C   0  0  0  0  0  0  0  0  0 16  0  0
   37.7315   43.9178   55.6094 C   0  0  0  0  0  0  0  0  0 17  0  0
   37.6739   45.0051   54.7508 C   0  0  0  0  0  0  0  0  0 18  0  0
   37.0693   46.1937   55.1220 C   0  0  0  0  0  0  0  0  0 19  0  0
   36.5196   46.2629   56.3876 C   0  0  0  0  0  0  0  0  0 20  0  0
   36.5807   45.1775   57.2362 C   0  0  0  0  0  0  0  0  0 21  0  0
   35.9121   47.4623   56.7560 O   0  0  0  0  0  0  0  0  0 22  0  0
   37.0040   47.2908   54.2728 O   0  0  0  0  0  0  0  0  0 23  0  0
  1  2  1  1
  3  2  1  6
  3  4  1  0
  4  5  1  1
  5  6  2  0
  6  7  1  0
  7  2  1  1
  6  8  1  0
  8  9  1  0
  9 10  2  0
  5 10  1  0
 10 11  1  0
 11 12  2  0
 11 13  1  0
 13 14  1  0
 14 15  1  0
  9 15  1  0
 16 17  2  0
 17 18  1  0
 18 19  2  0
 19 20  1  0
 20 21  2  0
 16 21  1  0
 20 22  1  0
 19 23  1  0
 14 16  1  6
M  END
>  <fitscore>  (37) 
0.039008

$$$$
sQC_Substrate__STK536739_rank_37
     RDKit          3D

 23 26  0  0  0  0  0  0  0  0999 V2000
   45.6802   44.9492   58.7887 C   0  0  0  0  0  0  0  0  0  1  0  0
   44.4278   44.7179   58.0522 N   0  0  0  0  0  0  0  0  0  2  0  0
   43.4588   45.6828   58.5040 C   0  0  0  0  0  0  0  0  0  3  0  0
   42.6583   45.1673   59.7040 C   0  0  0  0  0  0  0  0  0  4  0  0
   41.7718   44.0823   59.0808 C   0  0  0  0  0  0  0  0  0  5  0  0
   42.5570   43.1940   58.3509 C   0  0  0  0  0  0  0  0  0  6  0  0
   44.0156   43.3578   58.2539 C   0  0  0  0  0  0  0  0  0  7  0  0
   41.3716   42.0428   57.7239 S   0  0  0  0  0  0  0  0  0  8  0  0
   39.9476   42.7840   58.4439 C   0  0  0  0  0  0  0  0  0  9  0  0
   40.4478   43.8517   59.1128 C   0  0  0  0  0  0  0  0  0 10  0  0
   39.4259   44.6585   59.8427 C   0  0  0  0  0  0  0  0  0 11  0  0
   39.8027   45.6801   60.4967 O   0  0  0  0  0  0  0  0  0 12  0  0
   38.0817   44.2705   59.7884 N   0  0  0  0  0  0  0  0  0 13  0  0
   37.5685   43.4363   58.7261 C   0  0  2  0  0  0  0  0  0 14  0  0
   38.5595   42.4383   58.3917 N   0  0  0  0  0  0  0  0  0 15  0  0
   37.2384   44.3154   57.5875 C   0  0  0  0  0  0  0  0  0 16  0  0
   37.9900   44.4386   56.4585 C   0  0  0  0  0  0  0  0  0 17  0  0
   37.5992   45.2923   55.4381 C   0  0  0  0  0  0  0  0  0 18  0  0
   36.4416   46.0464   55.5240 C   0  0  0  0  0  0  0  0  0 19  0  0
   35.6805   45.9200   56.6701 C   0  0  0  0  0  0  0  0  0 20  0  0
   36.0753   45.0689   57.6809 C   0  0  0  0  0  0  0  0  0 21  0  0
   34.5157   46.6818   56.7512 O   0  0  0  0  0  0  0  0  0 22  0  0
   36.0376   46.9055   54.5103 O   0  0  0  0  0  0  0  0  0 23  0  0
  1  2  1  1
  3  2  1  6
  3  4  1  0
  4  5  1  1
  5  6  2  0
  6  7  1  0
  7  2  1  1
  6  8  1  0
  8  9  1  0
  9 10  2  0
  5 10  1  0
 10 11  1  0
 11 12  2  0
 11 13  1  0
 13 14  1  0
 14 15  1  0
  9 15  1  0
 16 17  2  0
 17 18  1  0
 18 19  2  0
 19 20  1  0
 20 21  2  0
 16 21  1  0
 20 22  1  0
 19 23  1  0
 14 16  1  6
M  END
>  <fitscore>  (38) 
-0.00497936

$$$$
sQC_Substrate__STK536739_rank_38
     RDKit          3D

 23 26  0  0  0  0  0  0  0  0999 V2000
   43.6741   41.9486   60.9118 C   0  0  0  0  0  0  0  0  0  1  0  0
   42.2993   42.0907   60.4077 N   0  0  0  0  0  0  0  0  0  2  0  0
   42.3676   42.3886   59.0004 C   0  0  0  0  0  0  0  0  0  3  0  0
   42.4456   43.8962   58.7403 C   0  0  0  0  0  0  0  0  0  4  0  0
   41.0368   44.3780   59.1075 C   0  0  0  0  0  0  0  0  0  5  0  0
   40.6986   43.9205   60.3781 C   0  0  0  0  0  0  0  0  0  6  0  0
   41.6269   43.1019   61.1730 C   0  0  0  0  0  0  0  0  0  7  0  0
   39.0709   44.5688   60.6107 S   0  0  0  0  0  0  0  0  0  8  0  0
   38.9379   45.3834   59.0569 C   0  0  0  0  0  0  0  0  0  9  0  0
   40.1244   45.1203   58.4564 C   0  0  0  0  0  0  0  0  0 10  0  0
   40.2797   45.7261   57.1012 C   0  0  0  0  0  0  0  0  0 11  0  0
   41.3596   45.5312   56.4615 O   0  0  0  0  0  0  0  0  0 12  0  0
   39.2346   46.4919   56.5705 N   0  0  0  0  0  0  0  0  0 13  0  0
   37.8732   46.3545   57.0349 C   0  0  2  0  0  0  0  0  0 14  0  0
   37.8832   46.1498   58.4659 N   0  0  0  0  0  0  0  0  0 15  0  0
   37.2627   45.2281   56.3023 C   0  0  0  0  0  0  0  0  0 16  0  0
   35.9614   44.8426   56.4156 C   0  0  0  0  0  0  0  0  0 17  0  0
   35.4755   43.7688   55.6852 C   0  0  0  0  0  0  0  0  0 18  0  0
   36.2843   43.0521   54.8201 C   0  0  0  0  0  0  0  0  0 19  0  0
   37.6040   43.4447   54.7065 C   0  0  0  0  0  0  0  0  0 20  0  0
   38.0804   44.5137   55.4361 C   0  0  0  0  0  0  0  0  0 21  0  0
   38.4139   42.7193   53.8339 O   0  0  0  0  0  0  0  0  0 22  0  0
   35.8117   41.9746   54.0822 O   0  0  0  0  0  0  0  0  0 23  0  0
  1  2  1  1
  3  2  1  6
  3  4  1  0
  4  5  1  1
  5  6  2  0
  6  7  1  0
  7  2  1  1
  6  8  1  0
  8  9  1  0
  9 10  2  0
  5 10  1  0
 10 11  1  0
 11 12  2  0
 11 13  1  0
 13 14  1  0
 14 15  1  0
  9 15  1  0
 16 17  2  0
 17 18  1  0
 18 19  2  0
 19 20  1  0
 20 21  2  0
 16 21  1  0
 20 22  1  0
 19 23  1  0
 14 16  1  6
M  END
>  <fitscore>  (39) 
-0.00738529

$$$$
sQC_Substrate__STK536739_rank_39
     RDKit          3D

 23 26  0  0  0  0  0  0  0  0999 V2000
   43.9312   42.1849   61.3740 C   0  0  0  0  0  0  0  0  0  1  0  0
   43.1251   42.4318   60.1682 N   0  0  0  0  0  0  0  0  0  2  0  0
   42.4920   43.7176   60.3092 C   0  0  0  0  0  0  0  0  0  3  0  0
   41.1293   43.6089   61.0004 C   0  0  0  0  0  0  0  0  0  4  0  0
   40.2598   42.9325   59.9336 C   0  0  0  0  0  0  0  0  0  5  0  0
   40.8881   41.7773   59.4765 C   0  0  0  0  0  0  0  0  0  6  0  0
   42.1937   41.3520   60.0038 C   0  0  0  0  0  0  0  0  0  7  0  0
   39.7490   41.1572   58.2758 S   0  0  0  0  0  0  0  0  0  8  0  0
   38.5431   42.4272   58.4448 C   0  0  0  0  0  0  0  0  0  9  0  0
   39.0680   43.2410   59.3934 C   0  0  0  0  0  0  0  0  0 10  0  0
   38.2141   44.4141   59.7435 C   0  0  0  0  0  0  0  0  0 11  0  0
   38.6264   45.2332   60.6224 O   0  0  0  0  0  0  0  0  0 12  0  0
   36.9839   44.5820   59.0964 N   0  0  0  0  0  0  0  0  0 13  0  0
   36.7025   43.9712   57.8175 C   0  0  2  0  0  0  0  0  0 14  0  0
   37.2915   42.6513   57.7873 N   0  0  0  0  0  0  0  0  0 15  0  0
   37.2413   44.8598   56.7696 C   0  0  0  0  0  0  0  0  0 16  0  0
   36.6831   46.0437   56.3933 C   0  0  0  0  0  0  0  0  0 17  0  0
   37.2622   46.8135   55.3958 C   0  0  0  0  0  0  0  0  0 18  0  0
   38.4190   46.4146   54.7485 C   0  0  0  0  0  0  0  0  0 19  0  0
   38.9837   45.2134   55.1317 C   0  0  0  0  0  0  0  0  0 20  0  0
   38.4023   44.4531   56.1245 C   0  0  0  0  0  0  0  0  0 21  0  0
   40.1486   44.8168   54.4764 O   0  0  0  0  0  0  0  0  0 22  0  0
   39.0102   47.1750   53.7479 O   0  0  0  0  0  0  0  0  0 23  0  0
  1  2  1  1
  3  2  1  6
  3  4  1  0
  4  5  1  1
  5  6  2  0
  6  7  1  0
  7  2  1  1
  6  8  1  0
  8  9  1  0
  9 10  2  0
  5 10  1  0
 10 11  1  0
 11 12  2  0
 11 13  1  0
 13 14  1  0
 14 15  1  0
  9 15  1  0
 16 17  2  0
 17 18  1  0
 18 19  2  0
 19 20  1  0
 20 21  2  0
 16 21  1  0
 20 22  1  0
 19 23  1  0
 14 16  1  6
M  END
>  <fitscore>  (40) 
-0.0094938

$$$$
