sQC_Substrate__STK243239_rank_0
     RDKit          3D

 17 18  0  0  0  0  0  0  0  0999 V2000
   38.8654   44.7569   56.7701 O   0  0  0  0  0  0  0  0  0  1  0  0
   38.8916   43.4607   56.6662 C   0  0  0  0  0  0  0  0  0  2  0  0
   38.7451   42.7973   57.9026 N   0  0  0  0  0  0  0  0  0  3  0  0
   39.4915   43.2327   59.0310 C   0  0  0  0  0  0  0  0  0  4  0  0
   38.9016   44.0094   59.9862 C   0  0  0  0  0  0  0  0  0  5  0  0
   39.6148   44.4439   61.1162 C   0  0  0  0  0  0  0  0  0  6  0  0
   40.9186   44.0641   61.2317 C   0  0  0  0  0  0  0  0  0  7  0  0
   41.5094   43.2827   60.2717 C   0  0  0  0  0  0  0  0  0  8  0  0
   40.7898   42.8908   59.2067 N   0  0  0  0  0  0  0  0  0  9  0  0
   41.9650   44.5972   62.7260 Br  0  0  0  0  0  0  0  0  0 10  0  0
   39.0637   42.9128   55.3374 C   0  0  0  0  0  0  0  0  0 11  0  0
   37.5727   42.7250   54.3851 S   0  0  0  0  0  0  0  0  0 12  0  0
   37.0864   44.2172   53.5858 C   0  0  0  0  0  0  0  0  0 13  0  0
   37.4901   45.4931   54.0310 C   0  0  0  0  0  0  0  0  0 14  0  0
   36.9697   46.3604   53.1681 N   0  0  0  0  0  0  0  0  0 15  0  0
   36.2996   45.7241   52.2582 N   0  0  0  0  0  0  0  0  0 16  0  0
   36.3518   44.4077   52.4859 N   0  0  0  0  0  0  0  0  0 17  0  0
  1  2  2  0
  2  3  1  0
  3  4  1  0
  4  5  2  0
  5  6  1  0
  6  7  2  0
  7  8  1  0
  8  9  2  0
  4  9  1  0
  7 10  1  0
  2 11  1  0
 11 12  1  1
 12 13  1  0
 13 14  2  0
 14 15  1  0
 15 16  2  0
 16 17  1  0
 13 17  1  0
M  END
>  <fitscore>  (1) 
0.349397

$$$$
sQC_Substrate__STK243239_rank_1
     RDKit          3D

 17 18  0  0  0  0  0  0  0  0999 V2000
   39.1360   44.5729   56.9580 O   0  0  0  0  0  0  0  0  0  1  0  0
   39.4872   43.5283   56.2674 C   0  0  0  0  0  0  0  0  0  2  0  0
   39.9803   42.4722   57.0622 N   0  0  0  0  0  0  0  0  0  3  0  0
   40.0383   42.6183   58.4747 C   0  0  0  0  0  0  0  0  0  4  0  0
   39.5866   43.7630   59.0657 C   0  0  0  0  0  0  0  0  0  5  0  0
   39.6234   43.9277   60.4606 C   0  0  0  0  0  0  0  0  0  6  0  0
   40.1244   42.9054   61.2099 C   0  0  0  0  0  0  0  0  0  7  0  0
   40.5768   41.7555   60.6147 C   0  0  0  0  0  0  0  0  0  8  0  0
   40.5236   41.6413   59.2769 N   0  0  0  0  0  0  0  0  0  9  0  0
   40.2114   43.0313   63.1043 Br  0  0  0  0  0  0  0  0  0 10  0  0
   39.3249   43.6070   54.8311 C   0  0  0  0  0  0  0  0  0 11  0  0
   39.0297   45.2360   54.1796 S   0  0  0  0  0  0  0  0  0 12  0  0
   37.3369   45.5086   53.7769 C   0  0  0  0  0  0  0  0  0 13  0  0
   36.3274   45.6401   54.7530 C   0  0  0  0  0  0  0  0  0 14  0  0
   35.2029   45.8736   54.0833 N   0  0  0  0  0  0  0  0  0 15  0  0
   35.4477   45.8934   52.8100 N   0  0  0  0  0  0  0  0  0 16  0  0
   36.7477   45.6729   52.5889 N   0  0  0  0  0  0  0  0  0 17  0  0
  1  2  2  0
  2  3  1  0
  3  4  1  0
  4  5  2  0
  5  6  1  0
  6  7  2  0
  7  8  1  0
  8  9  2  0
  4  9  1  0
  7 10  1  0
  2 11  1  0
 11 12  1  1
 12 13  1  0
 13 14  2  0
 14 15  1  0
 15 16  2  0
 16 17  1  0
 13 17  1  0
M  END
>  <fitscore>  (2) 
0.334132

$$$$
sQC_Substrate__STK243239_rank_2
     RDKit          3D

 17 18  0  0  0  0  0  0  0  0999 V2000
   38.2204   45.0829   58.1027 O   0  0  0  0  0  0  0  0  0  1  0  0
   37.8549   44.0367   57.4219 C   0  0  0  0  0  0  0  0  0  2  0  0
   38.7779   42.9722   57.4936 N   0  0  0  0  0  0  0  0  0  3  0  0
   39.8413   43.0211   58.4353 C   0  0  0  0  0  0  0  0  0  4  0  0
   40.4389   44.2114   58.7350 C   0  0  0  0  0  0  0  0  0  5  0  0
   41.4849   44.2879   59.6700 C   0  0  0  0  0  0  0  0  0  6  0  0
   41.8862   43.1335   60.2730 C   0  0  0  0  0  0  0  0  0  7  0  0
   41.2840   41.9385   59.9718 C   0  0  0  0  0  0  0  0  0  8  0  0
   40.2878   41.9117   59.0704 N   0  0  0  0  0  0  0  0  0  9  0  0
   43.2894   43.1349   61.5549 Br  0  0  0  0  0  0  0  0  0 10  0  0
   36.5950   44.1222   56.7144 C   0  0  0  0  0  0  0  0  0 11  0  0
   36.6023   43.4855   55.0531 S   0  0  0  0  0  0  0  0  0 12  0  0
   37.3815   44.5776   53.9120 C   0  0  0  0  0  0  0  0  0 13  0  0
   36.7974   45.7893   53.4883 C   0  0  0  0  0  0  0  0  0 14  0  0
   37.6828   46.3537   52.6727 N   0  0  0  0  0  0  0  0  0 15  0  0
   38.7310   45.5966   52.5730 N   0  0  0  0  0  0  0  0  0 16  0  0
   38.5776   44.4993   53.3213 N   0  0  0  0  0  0  0  0  0 17  0  0
  1  2  2  0
  2  3  1  0
  3  4  1  0
  4  5  2  0
  5  6  1  0
  6  7  2  0
  7  8  1  0
  8  9  2  0
  4  9  1  0
  7 10  1  0
  2 11  1  0
 11 12  1  1
 12 13  1  0
 13 14  2  0
 14 15  1  0
 15 16  2  0
 16 17  1  0
 13 17  1  0
M  END
>  <fitscore>  (3) 
0.328039

$$$$
sQC_Substrate__STK243239_rank_3
     RDKit          3D

 17 18  0  0  0  0  0  0  0  0999 V2000
   37.7071   44.7348   57.9189 O   0  0  0  0  0  0  0  0  0  1  0  0
   37.9208   43.8386   57.0009 C   0  0  0  0  0  0  0  0  0  2  0  0
   39.2684   43.4288   56.9223 N   0  0  0  0  0  0  0  0  0  3  0  0
   40.0213   43.2434   58.1134 C   0  0  0  0  0  0  0  0  0  4  0  0
   39.8798   44.1118   59.1572 C   0  0  0  0  0  0  0  0  0  5  0  0
   40.6047   43.9444   60.3492 C   0  0  0  0  0  0  0  0  0  6  0  0
   41.4562   42.8836   60.4335 C   0  0  0  0  0  0  0  0  0  7  0  0
   41.5963   42.0113   59.3843 C   0  0  0  0  0  0  0  0  0  8  0  0
   40.8838   42.2103   58.2625 N   0  0  0  0  0  0  0  0  0  9  0  0
   42.4767   42.5698   62.0058 Br  0  0  0  0  0  0  0  0  0 10  0  0
   36.7776   43.4123   56.2220 C   0  0  0  0  0  0  0  0  0 11  0  0
   36.1733   44.5923   55.0356 S   0  0  0  0  0  0  0  0  0 12  0  0
   37.4394   45.1864   53.9650 C   0  0  0  0  0  0  0  0  0 13  0  0
   38.8013   45.2169   54.3300 C   0  0  0  0  0  0  0  0  0 14  0  0
   39.4516   45.6824   53.2679 N   0  0  0  0  0  0  0  0  0 15  0  0
   38.6100   45.9294   52.3127 N   0  0  0  0  0  0  0  0  0 16  0  0
   37.3672   45.6356   52.7085 N   0  0  0  0  0  0  0  0  0 17  0  0
  1  2  2  0
  2  3  1  0
  3  4  1  0
  4  5  2  0
  5  6  1  0
  6  7  2  0
  7  8  1  0
  8  9  2  0
  4  9  1  0
  7 10  1  0
  2 11  1  0
 11 12  1  1
 12 13  1  0
 13 14  2  0
 14 15  1  0
 15 16  2  0
 16 17  1  0
 13 17  1  0
M  END
>  <fitscore>  (4) 
0.320339

$$$$
sQC_Substrate__STK243239_rank_4
     RDKit          3D

 17 18  0  0  0  0  0  0  0  0999 V2000
   40.1419   44.1789   56.3594 O   0  0  0  0  0  0  0  0  0  1  0  0
   39.1504   43.3397   56.2961 C   0  0  0  0  0  0  0  0  0  2  0  0
   38.4548   43.2027   57.5158 N   0  0  0  0  0  0  0  0  0  3  0  0
   39.1426   43.3862   58.7460 C   0  0  0  0  0  0  0  0  0  4  0  0
   39.6537   44.6096   59.0710 C   0  0  0  0  0  0  0  0  0  5  0  0
   40.3285   44.8194   60.2854 C   0  0  0  0  0  0  0  0  0  6  0  0
   40.4569   43.7607   61.1341 C   0  0  0  0  0  0  0  0  0  7  0  0
   39.9417   42.5325   60.8067 C   0  0  0  0  0  0  0  0  0  8  0  0
   39.3046   42.3768   59.6339 N   0  0  0  0  0  0  0  0  0  9  0  0
   41.3487   43.9458   62.8023 Br  0  0  0  0  0  0  0  0  0 10  0  0
   38.9196   42.6922   55.0221 C   0  0  0  0  0  0  0  0  0 11  0  0
   39.1541   43.7164   53.5864 S   0  0  0  0  0  0  0  0  0 12  0  0
   37.9507   44.9965   53.4629 C   0  0  0  0  0  0  0  0  0 13  0  0
   37.7852   45.7851   52.3054 C   0  0  0  0  0  0  0  0  0 14  0  0
   36.7712   46.6045   52.5661 N   0  0  0  0  0  0  0  0  0 15  0  0
   36.3216   46.3782   53.7613 N   0  0  0  0  0  0  0  0  0 16  0  0
   37.0238   45.3974   54.3379 N   0  0  0  0  0  0  0  0  0 17  0  0
  1  2  2  0
  2  3  1  0
  3  4  1  0
  4  5  2  0
  5  6  1  0
  6  7  2  0
  7  8  1  0
  8  9  2  0
  4  9  1  0
  7 10  1  0
  2 11  1  0
 11 12  1  1
 12 13  1  0
 13 14  2  0
 14 15  1  0
 15 16  2  0
 16 17  1  0
 13 17  1  0
M  END
>  <fitscore>  (5) 
0.311699

$$$$
sQC_Substrate__STK243239_rank_5
     RDKit          3D

 17 18  0  0  0  0  0  0  0  0999 V2000
   39.0605   44.9794   56.9021 O   0  0  0  0  0  0  0  0  0  1  0  0
   39.4284   43.9603   56.1826 C   0  0  0  0  0  0  0  0  0  2  0  0
   38.9774   42.7243   56.6917 N   0  0  0  0  0  0  0  0  0  3  0  0
   38.8360   42.5472   58.0947 C   0  0  0  0  0  0  0  0  0  4  0  0
   38.7913   41.2909   58.6271 C   0  0  0  0  0  0  0  0  0  5  0  0
   38.6626   41.0892   60.0116 C   0  0  0  0  0  0  0  0  0  6  0  0
   38.5848   42.1900   60.8114 C   0  0  0  0  0  0  0  0  0  7  0  0
   38.6310   43.4515   60.2751 C   0  0  0  0  0  0  0  0  0  8  0  0
   38.7537   43.5978   58.9450 N   0  0  0  0  0  0  0  0  0  9  0  0
   38.4141   42.0204   62.6967 Br  0  0  0  0  0  0  0  0  0 10  0  0
   40.2222   44.2413   55.0052 C   0  0  0  0  0  0  0  0  0 11  0  0
   39.3741   44.0770   53.4499 S   0  0  0  0  0  0  0  0  0 12  0  0
   37.9292   45.0799   53.3564 C   0  0  0  0  0  0  0  0  0 13  0  0
   36.7878   44.8577   54.1545 C   0  0  0  0  0  0  0  0  0 14  0  0
   35.9305   45.8238   53.8393 N   0  0  0  0  0  0  0  0  0 15  0  0
   36.4518   46.5940   52.9355 N   0  0  0  0  0  0  0  0  0 16  0  0
   37.6775   46.1647   52.6178 N   0  0  0  0  0  0  0  0  0 17  0  0
  1  2  2  0
  2  3  1  0
  3  4  1  0
  4  5  2  0
  5  6  1  0
  6  7  2  0
  7  8  1  0
  8  9  2  0
  4  9  1  0
  7 10  1  0
  2 11  1  0
 11 12  1  1
 12 13  1  0
 13 14  2  0
 14 15  1  0
 15 16  2  0
 16 17  1  0
 13 17  1  0
M  END
>  <fitscore>  (6) 
0.304426

$$$$
sQC_Substrate__STK243239_rank_6
     RDKit          3D

 17 18  0  0  0  0  0  0  0  0999 V2000
   39.4935   43.9189   56.3154 O   0  0  0  0  0  0  0  0  0  1  0  0
   38.7756   42.8351   56.3539 C   0  0  0  0  0  0  0  0  0  2  0  0
   38.9409   42.0966   57.5445 N   0  0  0  0  0  0  0  0  0  3  0  0
   40.0669   42.3405   58.3767 C   0  0  0  0  0  0  0  0  0  4  0  0
   40.9218   43.3661   58.0922 C   0  0  0  0  0  0  0  0  0  5  0  0
   42.0360   43.6344   58.9050 C   0  0  0  0  0  0  0  0  0  6  0  0
   42.2383   42.8375   59.9920 C   0  0  0  0  0  0  0  0  0  7  0  0
   41.3779   41.8081   60.2772 C   0  0  0  0  0  0  0  0  0  8  0  0
   40.3254   41.5870   59.4717 N   0  0  0  0  0  0  0  0  0  9  0  0
   43.7144   43.1236   61.1546 Br  0  0  0  0  0  0  0  0  0 10  0  0
   37.9423   42.5593   55.2028 C   0  0  0  0  0  0  0  0  0 11  0  0
   36.4641   43.5406   55.0719 S   0  0  0  0  0  0  0  0  0 12  0  0
   36.7968   45.2701   55.0656 C   0  0  0  0  0  0  0  0  0 13  0  0
   37.7131   45.8786   55.9483 C   0  0  0  0  0  0  0  0  0 14  0  0
   37.7288   47.1678   55.6236 N   0  0  0  0  0  0  0  0  0 15  0  0
   36.9139   47.3809   54.6375 N   0  0  0  0  0  0  0  0  0 16  0  0
   36.3265   46.2369   54.2719 N   0  0  0  0  0  0  0  0  0 17  0  0
  1  2  2  0
  2  3  1  0
  3  4  1  0
  4  5  2  0
  5  6  1  0
  6  7  2  0
  7  8  1  0
  8  9  2  0
  4  9  1  0
  7 10  1  0
  2 11  1  0
 11 12  1  1
 12 13  1  0
 13 14  2  0
 14 15  1  0
 15 16  2  0
 16 17  1  0
 13 17  1  0
M  END
>  <fitscore>  (7) 
0.29826

$$$$
sQC_Substrate__STK243239_rank_7
     RDKit          3D

 17 18  0  0  0  0  0  0  0  0999 V2000
   37.2768   42.4184   57.8292 O   0  0  0  0  0  0  0  0  0  1  0  0
   38.0564   42.9516   56.9352 C   0  0  0  0  0  0  0  0  0  2  0  0
   39.2695   43.4360   57.4682 N   0  0  0  0  0  0  0  0  0  3  0  0
   39.8139   42.8424   58.6391 C   0  0  0  0  0  0  0  0  0  4  0  0
   39.1594   42.9518   59.8322 C   0  0  0  0  0  0  0  0  0  5  0  0
   39.6712   42.3652   61.0018 C   0  0  0  0  0  0  0  0  0  6  0  0
   40.8452   41.6792   60.9094 C   0  0  0  0  0  0  0  0  0  7  0  0
   41.5010   41.5691   59.7098 C   0  0  0  0  0  0  0  0  0  8  0  0
   40.9755   42.1470   58.6164 N   0  0  0  0  0  0  0  0  0  9  0  0
   41.6154   40.8465   62.4345 Br  0  0  0  0  0  0  0  0  0 10  0  0
   37.5741   42.9677   55.5704 C   0  0  0  0  0  0  0  0  0 11  0  0
   38.4912   43.9949   54.4438 S   0  0  0  0  0  0  0  0  0 12  0  0
   37.6897   45.5294   54.1199 C   0  0  0  0  0  0  0  0  0 13  0  0
   37.0000   46.2591   55.1104 C   0  0  0  0  0  0  0  0  0 14  0  0
   36.5696   47.3658   54.5125 N   0  0  0  0  0  0  0  0  0 15  0  0
   36.9364   47.3625   53.2686 N   0  0  0  0  0  0  0  0  0 16  0  0
   37.6255   46.2496   52.9962 N   0  0  0  0  0  0  0  0  0 17  0  0
  1  2  2  0
  2  3  1  0
  3  4  1  0
  4  5  2  0
  5  6  1  0
  6  7  2  0
  7  8  1  0
  8  9  2  0
  4  9  1  0
  7 10  1  0
  2 11  1  0
 11 12  1  1
 12 13  1  0
 13 14  2  0
 14 15  1  0
 15 16  2  0
 16 17  1  0
 13 17  1  0
M  END
>  <fitscore>  (8) 
0.295894

$$$$
sQC_Substrate__STK243239_rank_8
     RDKit          3D

 17 18  0  0  0  0  0  0  0  0999 V2000
   40.2211   45.0249   57.0867 O   0  0  0  0  0  0  0  0  0  1  0  0
   40.2916   44.1099   56.1651 C   0  0  0  0  0  0  0  0  0  2  0  0
   40.2468   42.7959   56.6768 N   0  0  0  0  0  0  0  0  0  3  0  0
   40.5188   42.5636   58.0523 C   0  0  0  0  0  0  0  0  0  4  0  0
   40.8010   43.6098   58.8827 C   0  0  0  0  0  0  0  0  0  5  0  0
   41.0630   43.4076   60.2482 C   0  0  0  0  0  0  0  0  0  6  0  0
   41.0254   42.1303   60.7219 C   0  0  0  0  0  0  0  0  0  7  0  0
   40.7406   41.0803   59.8866 C   0  0  0  0  0  0  0  0  0  8  0  0
   40.4973   41.3197   58.5870 N   0  0  0  0  0  0  0  0  0  9  0  0
   41.3610   41.7554   62.5547 Br  0  0  0  0  0  0  0  0  0 10  0  0
   40.4037   44.5657   54.7958 C   0  0  0  0  0  0  0  0  0 11  0  0
   39.1452   43.9765   53.6847 S   0  0  0  0  0  0  0  0  0 12  0  0
   37.6224   44.8430   53.8646 C   0  0  0  0  0  0  0  0  0 13  0  0
   36.5645   44.7360   52.9381 C   0  0  0  0  0  0  0  0  0 14  0  0
   35.5810   45.4889   53.4214 N   0  0  0  0  0  0  0  0  0 15  0  0
   35.9524   46.0291   54.5403 N   0  0  0  0  0  0  0  0  0 16  0  0
   37.1998   45.6526   54.8401 N   0  0  0  0  0  0  0  0  0 17  0  0
  1  2  2  0
  2  3  1  0
  3  4  1  0
  4  5  2  0
  5  6  1  0
  6  7  2  0
  7  8  1  0
  8  9  2  0
  4  9  1  0
  7 10  1  0
  2 11  1  0
 11 12  1  1
 12 13  1  0
 13 14  2  0
 14 15  1  0
 15 16  2  0
 16 17  1  0
 13 17  1  0
M  END
>  <fitscore>  (9) 
0.270975

$$$$
sQC_Substrate__STK243239_rank_9
     RDKit          3D

 17 18  0  0  0  0  0  0  0  0999 V2000
   38.0662   43.7708   58.4997 O   0  0  0  0  0  0  0  0  0  1  0  0
   38.1786   42.9682   57.4825 C   0  0  0  0  0  0  0  0  0  2  0  0
   39.5171   42.6770   57.1450 N   0  0  0  0  0  0  0  0  0  3  0  0
   40.5554   42.9445   58.0780 C   0  0  0  0  0  0  0  0  0  4  0  0
   40.2512   43.3165   59.3558 C   0  0  0  0  0  0  0  0  0  5  0  0
   41.2590   43.5763   60.2998 C   0  0  0  0  0  0  0  0  0  6  0  0
   42.5553   43.4439   59.9006 C   0  0  0  0  0  0  0  0  0  7  0  0
   42.8593   43.0690   58.6167 C   0  0  0  0  0  0  0  0  0  8  0  0
   41.8634   42.8314   57.7465 N   0  0  0  0  0  0  0  0  0  9  0  0
   43.9888   43.7685   61.1055 Br  0  0  0  0  0  0  0  0  0 10  0  0
   36.9498   42.5110   56.8690 C   0  0  0  0  0  0  0  0  0 11  0  0
   35.6959   43.7527   56.6430 S   0  0  0  0  0  0  0  0  0 12  0  0
   35.8585   44.6098   55.1129 C   0  0  0  0  0  0  0  0  0 13  0  0
   35.1569   44.2386   53.9471 C   0  0  0  0  0  0  0  0  0 14  0  0
   35.4980   45.1278   53.0194 N   0  0  0  0  0  0  0  0  0 15  0  0
   36.3302   45.9866   53.5211 N   0  0  0  0  0  0  0  0  0 16  0  0
   36.5717   45.6967   54.8037 N   0  0  0  0  0  0  0  0  0 17  0  0
  1  2  2  0
  2  3  1  0
  3  4  1  0
  4  5  2  0
  5  6  1  0
  6  7  2  0
  7  8  1  0
  8  9  2  0
  4  9  1  0
  7 10  1  0
  2 11  1  0
 11 12  1  1
 12 13  1  0
 13 14  2  0
 14 15  1  0
 15 16  2  0
 16 17  1  0
 13 17  1  0
M  END
>  <fitscore>  (10) 
0.270761

$$$$
sQC_Substrate__STK243239_rank_10
     RDKit          3D

 17 18  0  0  0  0  0  0  0  0999 V2000
   37.5398   45.2817   57.9206 O   0  0  0  0  0  0  0  0  0  1  0  0
   38.3662   44.7798   57.0507 C   0  0  0  0  0  0  0  0  0  2  0  0
   38.7817   43.4689   57.3655 N   0  0  0  0  0  0  0  0  0  3  0  0
   39.1715   43.1512   58.6948 C   0  0  0  0  0  0  0  0  0  4  0  0
   38.2690   43.2413   59.7151 C   0  0  0  0  0  0  0  0  0  5  0  0
   38.6266   42.9228   61.0360 C   0  0  0  0  0  0  0  0  0  6  0  0
   39.9068   42.5179   61.2696 C   0  0  0  0  0  0  0  0  0  7  0  0
   40.8121   42.4268   60.2433 C   0  0  0  0  0  0  0  0  0  8  0  0
   40.4270   42.7423   58.9952 N   0  0  0  0  0  0  0  0  0  9  0  0
   40.4849   42.0606   63.0214 Br  0  0  0  0  0  0  0  0  0 10  0  0
   38.7241   45.6185   55.9264 C   0  0  0  0  0  0  0  0  0 11  0  0
   37.4643   45.8194   54.6863 S   0  0  0  0  0  0  0  0  0 12  0  0
   37.5641   44.6039   53.4155 C   0  0  0  0  0  0  0  0  0 13  0  0
   38.7830   44.2055   52.8286 C   0  0  0  0  0  0  0  0  0 14  0  0
   38.4708   43.2559   51.9520 N   0  0  0  0  0  0  0  0  0 15  0  0
   37.1898   43.0538   51.9631 N   0  0  0  0  0  0  0  0  0 16  0  0
   36.6048   43.8650   52.8504 N   0  0  0  0  0  0  0  0  0 17  0  0
  1  2  2  0
  2  3  1  0
  3  4  1  0
  4  5  2  0
  5  6  1  0
  6  7  2  0
  7  8  1  0
  8  9  2  0
  4  9  1  0
  7 10  1  0
  2 11  1  0
 11 12  1  1
 12 13  1  0
 13 14  2  0
 14 15  1  0
 15 16  2  0
 16 17  1  0
 13 17  1  0
M  END
>  <fitscore>  (11) 
0.262886

$$$$
sQC_Substrate__STK243239_rank_11
     RDKit          3D

 17 18  0  0  0  0  0  0  0  0999 V2000
   40.2477   44.4946   55.9661 O   0  0  0  0  0  0  0  0  0  1  0  0
   39.4674   43.4689   55.7906 C   0  0  0  0  0  0  0  0  0  2  0  0
   38.7709   43.0898   56.9574 N   0  0  0  0  0  0  0  0  0  3  0  0
   39.3966   43.2182   58.2271 C   0  0  0  0  0  0  0  0  0  4  0  0
   39.8786   44.4283   58.6357 C   0  0  0  0  0  0  0  0  0  5  0  0
   40.4918   44.5836   59.8904 C   0  0  0  0  0  0  0  0  0  6  0  0
   40.5903   43.4857   60.6917 C   0  0  0  0  0  0  0  0  0  7  0  0
   40.1044   42.2708   60.2802 C   0  0  0  0  0  0  0  0  0  8  0  0
   39.5263   42.1677   59.0716 N   0  0  0  0  0  0  0  0  0  9  0  0
   41.3986   43.5957   62.4083 Br  0  0  0  0  0  0  0  0  0 10  0  0
   39.4348   42.8892   54.4646 C   0  0  0  0  0  0  0  0  0 11  0  0
   38.6602   43.8846   53.2099 S   0  0  0  0  0  0  0  0  0 12  0  0
   37.1983   44.6818   53.7837 C   0  0  0  0  0  0  0  0  0 13  0  0
   36.1305   43.9853   54.3868 C   0  0  0  0  0  0  0  0  0 14  0  0
   35.2362   44.9104   54.7213 N   0  0  0  0  0  0  0  0  0 15  0  0
   35.6693   46.0831   54.3763 N   0  0  0  0  0  0  0  0  0 16  0  0
   36.8704   45.9772   53.7987 N   0  0  0  0  0  0  0  0  0 17  0  0
  1  2  2  0
  2  3  1  0
  3  4  1  0
  4  5  2  0
  5  6  1  0
  6  7  2  0
  7  8  1  0
  8  9  2  0
  4  9  1  0
  7 10  1  0
  2 11  1  0
 11 12  1  1
 12 13  1  0
 13 14  2  0
 14 15  1  0
 15 16  2  0
 16 17  1  0
 13 17  1  0
M  END
>  <fitscore>  (12) 
0.259256

$$$$
sQC_Substrate__STK243239_rank_12
     RDKit          3D

 17 18  0  0  0  0  0  0  0  0999 V2000
   38.8812   45.0038   57.5116 O   0  0  0  0  0  0  0  0  0  1  0  0
   37.9629   44.0989   57.3406 C   0  0  0  0  0  0  0  0  0  2  0  0
   38.4411   42.7806   57.4947 N   0  0  0  0  0  0  0  0  0  3  0  0
   39.7437   42.5580   58.0177 C   0  0  0  0  0  0  0  0  0  4  0  0
   40.6387   43.5862   58.0921 C   0  0  0  0  0  0  0  0  0  5  0  0
   41.9288   43.3944   58.6146 C   0  0  0  0  0  0  0  0  0  6  0  0
   42.2615   42.1460   59.0483 C   0  0  0  0  0  0  0  0  0  7  0  0
   41.3608   41.1142   58.9739 C   0  0  0  0  0  0  0  0  0  8  0  0
   40.1380   41.3426   58.4660 N   0  0  0  0  0  0  0  0  0  9  0  0
   43.9806   41.7879   59.7754 Br  0  0  0  0  0  0  0  0  0 10  0  0
   36.6302   44.5684   57.0259 C   0  0  0  0  0  0  0  0  0 11  0  0
   36.2079   44.5794   55.2977 S   0  0  0  0  0  0  0  0  0 12  0  0
   37.4427   45.3461   54.3030 C   0  0  0  0  0  0  0  0  0 13  0  0
   38.7826   45.4905   54.7187 C   0  0  0  0  0  0  0  0  0 14  0  0
   39.4174   46.0691   53.7038 N   0  0  0  0  0  0  0  0  0 15  0  0
   38.5864   46.2803   52.7309 N   0  0  0  0  0  0  0  0  0 16  0  0
   37.3667   45.8479   53.0668 N   0  0  0  0  0  0  0  0  0 17  0  0
  1  2  2  0
  2  3  1  0
  3  4  1  0
  4  5  2  0
  5  6  1  0
  6  7  2  0
  7  8  1  0
  8  9  2  0
  4  9  1  0
  7 10  1  0
  2 11  1  0
 11 12  1  1
 12 13  1  0
 13 14  2  0
 14 15  1  0
 15 16  2  0
 16 17  1  0
 13 17  1  0
M  END
>  <fitscore>  (13) 
0.257545

$$$$
sQC_Substrate__STK243239_rank_13
     RDKit          3D

 17 18  0  0  0  0  0  0  0  0999 V2000
   37.8848   44.5172   59.3908 O   0  0  0  0  0  0  0  0  0  1  0  0
   37.7581   44.3586   58.1061 C   0  0  0  0  0  0  0  0  0  2  0  0
   38.6101   43.3657   57.5784 N   0  0  0  0  0  0  0  0  0  3  0  0
   39.7131   42.9008   58.3447 C   0  0  0  0  0  0  0  0  0  4  0  0
   40.0456   43.5198   59.5151 C   0  0  0  0  0  0  0  0  0  5  0  0
   41.1248   43.0730   60.2961 C   0  0  0  0  0  0  0  0  0  6  0  0
   41.8323   41.9972   59.8493 C   0  0  0  0  0  0  0  0  0  7  0  0
   41.4962   41.3756   58.6737 C   0  0  0  0  0  0  0  0  0  8  0  0
   40.4569   41.8374   57.9581 N   0  0  0  0  0  0  0  0  0  9  0  0
   43.3057   41.3154   60.8374 Br  0  0  0  0  0  0  0  0  0 10  0  0
   36.7920   45.2010   57.4336 C   0  0  0  0  0  0  0  0  0 11  0  0
   37.4661   46.3611   56.2653 S   0  0  0  0  0  0  0  0  0 12  0  0
   37.3734   45.7822   54.6045 C   0  0  0  0  0  0  0  0  0 13  0  0
   38.1949   46.2793   53.5715 C   0  0  0  0  0  0  0  0  0 14  0  0
   37.8719   45.5850   52.4846 N   0  0  0  0  0  0  0  0  0 15  0  0
   36.9423   44.7279   52.7729 N   0  0  0  0  0  0  0  0  0 16  0  0
   36.6145   44.8234   54.0655 N   0  0  0  0  0  0  0  0  0 17  0  0
  1  2  2  0
  2  3  1  0
  3  4  1  0
  4  5  2  0
  5  6  1  0
  6  7  2  0
  7  8  1  0
  8  9  2  0
  4  9  1  0
  7 10  1  0
  2 11  1  0
 11 12  1  1
 12 13  1  0
 13 14  2  0
 14 15  1  0
 15 16  2  0
 16 17  1  0
 13 17  1  0
M  END
>  <fitscore>  (14) 
0.245179

$$$$
sQC_Substrate__STK243239_rank_14
     RDKit          3D

 17 18  0  0  0  0  0  0  0  0999 V2000
   38.2682   44.4590   57.7621 O   0  0  0  0  0  0  0  0  0  1  0  0
   38.1703   43.4599   56.9352 C   0  0  0  0  0  0  0  0  0  2  0  0
   39.3648   42.7201   56.8079 N   0  0  0  0  0  0  0  0  0  3  0  0
   40.2456   42.6038   57.9171 C   0  0  0  0  0  0  0  0  0  4  0  0
   40.9320   43.6950   58.3662 C   0  0  0  0  0  0  0  0  0  5  0  0
   41.8006   43.6086   59.4672 C   0  0  0  0  0  0  0  0  0  6  0  0
   41.9373   42.3976   60.0774 C   0  0  0  0  0  0  0  0  0  7  0  0
   41.2460   41.3024   59.6258 C   0  0  0  0  0  0  0  0  0  8  0  0
   40.4266   41.4306   58.5686 N   0  0  0  0  0  0  0  0  0  9  0  0
   43.0846   42.1808   61.5771 Br  0  0  0  0  0  0  0  0  0 10  0  0
   36.8892   43.2661   56.2897 C   0  0  0  0  0  0  0  0  0 11  0  0
   36.8231   43.7048   54.5668 S   0  0  0  0  0  0  0  0  0 12  0  0
   36.7997   45.4473   54.3114 C   0  0  0  0  0  0  0  0  0 13  0  0
   35.9276   46.0776   53.3996 C   0  0  0  0  0  0  0  0  0 14  0  0
   36.1669   47.3808   53.5099 N   0  0  0  0  0  0  0  0  0 15  0  0
   37.0925   47.5826   54.3956 N   0  0  0  0  0  0  0  0  0 16  0  0
   37.5016   46.4165   54.9060 N   0  0  0  0  0  0  0  0  0 17  0  0
  1  2  2  0
  2  3  1  0
  3  4  1  0
  4  5  2  0
  5  6  1  0
  6  7  2  0
  7  8  1  0
  8  9  2  0
  4  9  1  0
  7 10  1  0
  2 11  1  0
 11 12  1  1
 12 13  1  0
 13 14  2  0
 14 15  1  0
 15 16  2  0
 16 17  1  0
 13 17  1  0
M  END
>  <fitscore>  (15) 
0.242781

$$$$
sQC_Substrate__STK243239_rank_15
     RDKit          3D

 17 18  0  0  0  0  0  0  0  0999 V2000
   38.0410   45.1162   58.5091 O   0  0  0  0  0  0  0  0  0  1  0  0
   37.9469   43.9213   58.0045 C   0  0  0  0  0  0  0  0  0  2  0  0
   39.1002   43.5201   57.2979 N   0  0  0  0  0  0  0  0  0  3  0  0
   40.3828   43.9438   57.7399 C   0  0  0  0  0  0  0  0  0  4  0  0
   41.5021   43.5810   57.0476 C   0  0  0  0  0  0  0  0  0  5  0  0
   42.7803   43.9956   57.4579 C   0  0  0  0  0  0  0  0  0  6  0  0
   42.8702   44.7754   58.5719 C   0  0  0  0  0  0  0  0  0  7  0  0
   41.7447   45.1401   59.2658 C   0  0  0  0  0  0  0  0  0  8  0  0
   40.5421   44.7199   58.8380 N   0  0  0  0  0  0  0  0  0  9  0  0
   44.5541   45.3904   59.2034 Br  0  0  0  0  0  0  0  0  0 10  0  0
   36.7094   43.2070   58.2365 C   0  0  0  0  0  0  0  0  0 11  0  0
   35.3489   43.6665   57.1863 S   0  0  0  0  0  0  0  0  0 12  0  0
   35.8724   44.1858   55.5869 C   0  0  0  0  0  0  0  0  0 13  0  0
   36.2563   45.5118   55.2980 C   0  0  0  0  0  0  0  0  0 14  0  0
   36.6218   45.5139   54.0197 N   0  0  0  0  0  0  0  0  0 15  0  0
   36.4922   44.3219   53.5254 N   0  0  0  0  0  0  0  0  0 16  0  0
   36.0347   43.4840   54.4614 N   0  0  0  0  0  0  0  0  0 17  0  0
  1  2  2  0
  2  3  1  0
  3  4  1  0
  4  5  2  0
  5  6  1  0
  6  7  2  0
  7  8  1  0
  8  9  2  0
  4  9  1  0
  7 10  1  0
  2 11  1  0
 11 12  1  1
 12 13  1  0
 13 14  2  0
 14 15  1  0
 15 16  2  0
 16 17  1  0
 13 17  1  0
M  END
>  <fitscore>  (16) 
0.240195

$$$$
sQC_Substrate__STK243239_rank_16
     RDKit          3D

 17 18  0  0  0  0  0  0  0  0999 V2000
   38.8014   45.3206   58.0440 O   0  0  0  0  0  0  0  0  0  1  0  0
   39.1454   44.9473   56.8466 C   0  0  0  0  0  0  0  0  0  2  0  0
   39.5176   43.5887   56.7697 N   0  0  0  0  0  0  0  0  0  3  0  0
   40.1048   42.9518   57.8964 C   0  0  0  0  0  0  0  0  0  4  0  0
   39.9442   43.4804   59.1448 C   0  0  0  0  0  0  0  0  0  5  0  0
   40.5057   42.8643   60.2759 C   0  0  0  0  0  0  0  0  0  6  0  0
   41.2175   41.7171   60.0892 C   0  0  0  0  0  0  0  0  0  7  0  0
   41.3769   41.1867   58.8344 C   0  0  0  0  0  0  0  0  0  8  0  0
   40.8232   41.8100   57.7806 N   0  0  0  0  0  0  0  0  0  9  0  0
   42.0112   40.8075   61.5571 Br  0  0  0  0  0  0  0  0  0 10  0  0
   39.0970   45.9532   55.8069 C   0  0  0  0  0  0  0  0  0 11  0  0
   37.4792   46.5896   55.4285 S   0  0  0  0  0  0  0  0  0 12  0  0
   36.3325   45.3202   55.0090 C   0  0  0  0  0  0  0  0  0 13  0  0
   35.0633   45.2025   55.6125 C   0  0  0  0  0  0  0  0  0 14  0  0
   34.4743   44.1678   55.0208 N   0  0  0  0  0  0  0  0  0 15  0  0
   35.2687   43.6635   54.1284 N   0  0  0  0  0  0  0  0  0 16  0  0
   36.4168   44.3478   54.0963 N   0  0  0  0  0  0  0  0  0 17  0  0
  1  2  2  0
  2  3  1  0
  3  4  1  0
  4  5  2  0
  5  6  1  0
  6  7  2  0
  7  8  1  0
  8  9  2  0
  4  9  1  0
  7 10  1  0
  2 11  1  0
 11 12  1  1
 12 13  1  0
 13 14  2  0
 14 15  1  0
 15 16  2  0
 16 17  1  0
 13 17  1  0
M  END
>  <fitscore>  (17) 
0.239674

$$$$
sQC_Substrate__STK243239_rank_17
     RDKit          3D

 17 18  0  0  0  0  0  0  0  0999 V2000
   40.5111   45.3370   56.5108 O   0  0  0  0  0  0  0  0  0  1  0  0
   39.4999   44.5282   56.3891 C   0  0  0  0  0  0  0  0  0  2  0  0
   39.4695   43.5186   57.3739 N   0  0  0  0  0  0  0  0  0  3  0  0
   40.6169   43.2810   58.1781 C   0  0  0  0  0  0  0  0  0  4  0  0
   40.9143   44.1183   59.2146 C   0  0  0  0  0  0  0  0  0  5  0  0
   42.0368   43.8993   60.0308 C   0  0  0  0  0  0  0  0  0  6  0  0
   42.8229   42.8202   59.7568 C   0  0  0  0  0  0  0  0  0  7  0  0
   42.5222   41.9792   58.7159 C   0  0  0  0  0  0  0  0  0  8  0  0
   41.4391   42.2274   57.9604 N   0  0  0  0  0  0  0  0  0  9  0  0
   44.3602   42.4370   60.8067 Br  0  0  0  0  0  0  0  0  0 10  0  0
   38.5880   44.7790   55.2932 C   0  0  0  0  0  0  0  0  0 11  0  0
   37.0976   45.6524   55.7188 S   0  0  0  0  0  0  0  0  0 12  0  0
   35.7054   45.1129   54.7846 C   0  0  0  0  0  0  0  0  0 13  0  0
   34.3919   45.5606   55.0365 C   0  0  0  0  0  0  0  0  0 14  0  0
   33.6271   44.9775   54.1186 N   0  0  0  0  0  0  0  0  0 15  0  0
   34.3577   44.2309   53.3501 N   0  0  0  0  0  0  0  0  0 16  0  0
   35.6374   44.2922   53.7322 N   0  0  0  0  0  0  0  0  0 17  0  0
  1  2  2  0
  2  3  1  0
  3  4  1  0
  4  5  2  0
  5  6  1  0
  6  7  2  0
  7  8  1  0
  8  9  2  0
  4  9  1  0
  7 10  1  0
  2 11  1  0
 11 12  1  1
 12 13  1  0
 13 14  2  0
 14 15  1  0
 15 16  2  0
 16 17  1  0
 13 17  1  0
M  END
>  <fitscore>  (18) 
0.224089

$$$$
sQC_Substrate__STK243239_rank_18
     RDKit          3D

 17 18  0  0  0  0  0  0  0  0999 V2000
   39.1849   45.3612   57.9864 O   0  0  0  0  0  0  0  0  0  1  0  0
   39.0182   44.2412   57.3465 C   0  0  0  0  0  0  0  0  0  2  0  0
   38.8403   43.1312   58.1988 N   0  0  0  0  0  0  0  0  0  3  0  0
   39.8357   42.8133   59.1622 C   0  0  0  0  0  0  0  0  0  4  0  0
   40.5586   43.8073   59.7562 C   0  0  0  0  0  0  0  0  0  5  0  0
   41.5408   43.5199   60.7190 C   0  0  0  0  0  0  0  0  0  6  0  0
   41.7504   42.2133   61.0450 C   0  0  0  0  0  0  0  0  0  7  0  0
   41.0223   41.2158   60.4482 C   0  0  0  0  0  0  0  0  0  8  0  0
   40.0936   41.5363   59.5316 N   0  0  0  0  0  0  0  0  0  9  0  0
   43.0532   41.7239   62.3394 Br  0  0  0  0  0  0  0  0  0 10  0  0
   39.0415   44.3025   55.9004 C   0  0  0  0  0  0  0  0  0 11  0  0
   37.4636   44.1224   55.0986 S   0  0  0  0  0  0  0  0  0 12  0  0
   37.4154   44.8939   53.5160 C   0  0  0  0  0  0  0  0  0 13  0  0
   38.3789   45.8314   53.0896 C   0  0  0  0  0  0  0  0  0 14  0  0
   38.0420   46.1583   51.8457 N   0  0  0  0  0  0  0  0  0 15  0  0
   36.9764   45.5075   51.4953 N   0  0  0  0  0  0  0  0  0 16  0  0
   36.5671   44.7231   52.4977 N   0  0  0  0  0  0  0  0  0 17  0  0
  1  2  2  0
  2  3  1  0
  3  4  1  0
  4  5  2  0
  5  6  1  0
  6  7  2  0
  7  8  1  0
  8  9  2  0
  4  9  1  0
  7 10  1  0
  2 11  1  0
 11 12  1  1
 12 13  1  0
 13 14  2  0
 14 15  1  0
 15 16  2  0
 16 17  1  0
 13 17  1  0
M  END
>  <fitscore>  (19) 
0.218295

$$$$
sQC_Substrate__STK243239_rank_19
     RDKit          3D

 17 18  0  0  0  0  0  0  0  0999 V2000
   37.8412   42.7676   58.7200 O   0  0  0  0  0  0  0  0  0  1  0  0
   38.0645   43.6503   57.7913 C   0  0  0  0  0  0  0  0  0  2  0  0
   39.2857   43.4522   57.1134 N   0  0  0  0  0  0  0  0  0  3  0  0
   40.4746   43.2125   57.8544 C   0  0  0  0  0  0  0  0  0  4  0  0
   40.5815   42.1014   58.6403 C   0  0  0  0  0  0  0  0  0  5  0  0
   41.7499   41.8364   59.3743 C   0  0  0  0  0  0  0  0  0  6  0  0
   42.7788   42.7248   59.2771 C   0  0  0  0  0  0  0  0  0  7  0  0
   42.6702   43.8401   58.4861 C   0  0  0  0  0  0  0  0  0  8  0  0
   41.5337   44.0546   57.8021 N   0  0  0  0  0  0  0  0  0  9  0  0
   44.4017   42.4514   60.2276 Br  0  0  0  0  0  0  0  0  0 10  0  0
   37.0566   44.6718   57.6017 C   0  0  0  0  0  0  0  0  0 11  0  0
   35.7144   44.2349   56.5187 S   0  0  0  0  0  0  0  0  0 12  0  0
   35.8965   44.9158   54.9046 C   0  0  0  0  0  0  0  0  0 13  0  0
   36.2610   44.1432   53.7824 C   0  0  0  0  0  0  0  0  0 14  0  0
   36.2580   44.9798   52.7490 N   0  0  0  0  0  0  0  0  0 15  0  0
   35.9279   46.1684   53.1490 N   0  0  0  0  0  0  0  0  0 16  0  0
   35.6996   46.1627   54.4663 N   0  0  0  0  0  0  0  0  0 17  0  0
  1  2  2  0
  2  3  1  0
  3  4  1  0
  4  5  2  0
  5  6  1  0
  6  7  2  0
  7  8  1  0
  8  9  2  0
  4  9  1  0
  7 10  1  0
  2 11  1  0
 11 12  1  1
 12 13  1  0
 13 14  2  0
 14 15  1  0
 15 16  2  0
 16 17  1  0
 13 17  1  0
M  END
>  <fitscore>  (20) 
0.215155

$$$$
sQC_Substrate__STK243239_rank_20
     RDKit          3D

 17 18  0  0  0  0  0  0  0  0999 V2000
   37.9941   42.1329   57.4775 O   0  0  0  0  0  0  0  0  0  1  0  0
   38.9745   42.3618   56.6542 C   0  0  0  0  0  0  0  0  0  2  0  0
   40.1591   42.7784   57.2971 N   0  0  0  0  0  0  0  0  0  3  0  0
   40.0951   43.3435   58.5996 C   0  0  0  0  0  0  0  0  0  4  0  0
   41.2427   43.6158   59.2871 C   0  0  0  0  0  0  0  0  0  5  0  0
   41.2065   44.1840   60.5716 C   0  0  0  0  0  0  0  0  0  6  0  0
   39.9861   44.4579   61.1130 C   0  0  0  0  0  0  0  0  0  7  0  0
   38.8341   44.1848   60.4206 C   0  0  0  0  0  0  0  0  0  8  0  0
   38.9156   43.6402   59.1949 N   0  0  0  0  0  0  0  0  0  9  0  0
   39.8335   45.2312   62.8425 Br  0  0  0  0  0  0  0  0  0 10  0  0
   38.7081   42.1617   55.2455 C   0  0  0  0  0  0  0  0  0 11  0  0
   37.1645   42.8199   54.6546 S   0  0  0  0  0  0  0  0  0 12  0  0
   37.1911   44.5740   54.4980 C   0  0  0  0  0  0  0  0  0 13  0  0
   37.0807   45.4449   55.6019 C   0  0  0  0  0  0  0  0  0 14  0  0
   37.1816   46.6743   55.1061 N   0  0  0  0  0  0  0  0  0 15  0  0
   37.3409   46.6162   53.8204 N   0  0  0  0  0  0  0  0  0 16  0  0
   37.3512   45.3419   53.4162 N   0  0  0  0  0  0  0  0  0 17  0  0
  1  2  2  0
  2  3  1  0
  3  4  1  0
  4  5  2  0
  5  6  1  0
  6  7  2  0
  7  8  1  0
  8  9  2  0
  4  9  1  0
  7 10  1  0
  2 11  1  0
 11 12  1  1
 12 13  1  0
 13 14  2  0
 14 15  1  0
 15 16  2  0
 16 17  1  0
 13 17  1  0
M  END
>  <fitscore>  (21) 
0.212749

$$$$
sQC_Substrate__STK243239_rank_21
     RDKit          3D

 17 18  0  0  0  0  0  0  0  0999 V2000
   38.7469   44.9408   56.5974 O   0  0  0  0  0  0  0  0  0  1  0  0
   37.7966   44.1095   56.9098 C   0  0  0  0  0  0  0  0  0  2  0  0
   38.2537   42.9777   57.6171 N   0  0  0  0  0  0  0  0  0  3  0  0
   39.5002   43.0258   58.2981 C   0  0  0  0  0  0  0  0  0  4  0  0
   40.2590   41.8977   58.4220 C   0  0  0  0  0  0  0  0  0  5  0  0
   41.4995   41.9213   59.0814 C   0  0  0  0  0  0  0  0  0  6  0  0
   41.9257   43.1096   59.5948 C   0  0  0  0  0  0  0  0  0  7  0  0
   41.1628   44.2425   59.4684 C   0  0  0  0  0  0  0  0  0  8  0  0
   39.9820   44.1737   58.8308 N   0  0  0  0  0  0  0  0  0  9  0  0
   43.5916   43.2442   60.4996 Br  0  0  0  0  0  0  0  0  0 10  0  0
   36.4551   44.4612   56.4951 C   0  0  0  0  0  0  0  0  0 11  0  0
   36.0763   44.1590   54.7832 S   0  0  0  0  0  0  0  0  0 12  0  0
   37.1636   45.0079   53.6882 C   0  0  0  0  0  0  0  0  0 13  0  0
   37.6994   46.2811   53.9728 C   0  0  0  0  0  0  0  0  0 14  0  0
   38.4956   46.5771   52.9501 N   0  0  0  0  0  0  0  0  0 15  0  0
   38.4836   45.6060   52.0906 N   0  0  0  0  0  0  0  0  0 16  0  0
   37.6762   44.6281   52.5140 N   0  0  0  0  0  0  0  0  0 17  0  0
  1  2  2  0
  2  3  1  0
  3  4  1  0
  4  5  2  0
  5  6  1  0
  6  7  2  0
  7  8  1  0
  8  9  2  0
  4  9  1  0
  7 10  1  0
  2 11  1  0
 11 12  1  1
 12 13  1  0
 13 14  2  0
 14 15  1  0
 15 16  2  0
 16 17  1  0
 13 17  1  0
M  END
>  <fitscore>  (22) 
0.206785

$$$$
sQC_Substrate__STK243239_rank_22
     RDKit          3D

 17 18  0  0  0  0  0  0  0  0999 V2000
   37.6045   43.6930   58.6524 O   0  0  0  0  0  0  0  0  0  1  0  0
   38.2841   44.1743   57.6535 C   0  0  0  0  0  0  0  0  0  2  0  0
   39.2447   43.2747   57.1454 N   0  0  0  0  0  0  0  0  0  3  0  0
   39.9462   42.4142   58.0328 C   0  0  0  0  0  0  0  0  0  4  0  0
   39.6313   42.3934   59.3610 C   0  0  0  0  0  0  0  0  0  5  0  0
   40.3026   41.5443   60.2569 C   0  0  0  0  0  0  0  0  0  6  0  0
   41.2810   40.7372   59.7581 C   0  0  0  0  0  0  0  0  0  7  0  0
   41.5954   40.7585   58.4232 C   0  0  0  0  0  0  0  0  0  8  0  0
   40.9281   41.5872   57.6025 N   0  0  0  0  0  0  0  0  0  9  0  0
   42.2426   39.5505   60.8892 Br  0  0  0  0  0  0  0  0  0 10  0  0
   37.9619   45.5202   57.2290 C   0  0  0  0  0  0  0  0  0 11  0  0
   36.3978   45.7114   56.4031 S   0  0  0  0  0  0  0  0  0 12  0  0
   36.5443   45.6416   54.6493 C   0  0  0  0  0  0  0  0  0 13  0  0
   37.7807   45.7393   53.9779 C   0  0  0  0  0  0  0  0  0 14  0  0
   37.5033   45.6053   52.6846 N   0  0  0  0  0  0  0  0  0 15  0  0
   36.2272   45.4379   52.5256 N   0  0  0  0  0  0  0  0  0 16  0  0
   35.6106   45.4551   53.7117 N   0  0  0  0  0  0  0  0  0 17  0  0
  1  2  2  0
  2  3  1  0
  3  4  1  0
  4  5  2  0
  5  6  1  0
  6  7  2  0
  7  8  1  0
  8  9  2  0
  4  9  1  0
  7 10  1  0
  2 11  1  0
 11 12  1  1
 12 13  1  0
 13 14  2  0
 14 15  1  0
 15 16  2  0
 16 17  1  0
 13 17  1  0
M  END
>  <fitscore>  (23) 
0.197639

$$$$
sQC_Substrate__STK243239_rank_23
     RDKit          3D

 17 18  0  0  0  0  0  0  0  0999 V2000
   38.1425   44.4828   57.6694 O   0  0  0  0  0  0  0  0  0  1  0  0
   39.1427   44.6932   56.8652 C   0  0  0  0  0  0  0  0  0  2  0  0
   40.2470   43.8512   57.1138 N   0  0  0  0  0  0  0  0  0  3  0  0
   40.3091   43.1054   58.3221 C   0  0  0  0  0  0  0  0  0  4  0  0
   39.2917   43.1816   59.2291 C   0  0  0  0  0  0  0  0  0  5  0  0
   39.3243   42.4464   60.4259 C   0  0  0  0  0  0  0  0  0  6  0  0
   40.4062   41.6499   60.6551 C   0  0  0  0  0  0  0  0  0  7  0  0
   41.4271   41.5734   59.7423 C   0  0  0  0  0  0  0  0  0  8  0  0
   41.3547   42.2950   58.6111 N   0  0  0  0  0  0  0  0  0  9  0  0
   40.5402   40.6131   62.2424 Br  0  0  0  0  0  0  0  0  0 10  0  0
   38.9758   45.7295   55.8683 C   0  0  0  0  0  0  0  0  0 11  0  0
   38.8523   45.1641   54.1860 S   0  0  0  0  0  0  0  0  0 12  0  0
   37.2514   44.5425   53.7955 C   0  0  0  0  0  0  0  0  0 13  0  0
   36.0646   45.0943   54.3210 C   0  0  0  0  0  0  0  0  0 14  0  0
   35.0695   44.4004   53.7772 N   0  0  0  0  0  0  0  0  0 15  0  0
   35.5500   43.4946   52.9832 N   0  0  0  0  0  0  0  0  0 16  0  0
   36.8856   43.5556   52.9721 N   0  0  0  0  0  0  0  0  0 17  0  0
  1  2  2  0
  2  3  1  0
  3  4  1  0
  4  5  2  0
  5  6  1  0
  6  7  2  0
  7  8  1  0
  8  9  2  0
  4  9  1  0
  7 10  1  0
  2 11  1  0
 11 12  1  1
 12 13  1  0
 13 14  2  0
 14 15  1  0
 15 16  2  0
 16 17  1  0
 13 17  1  0
M  END
>  <fitscore>  (24) 
0.190011

$$$$
sQC_Substrate__STK243239_rank_24
     RDKit          3D

 17 18  0  0  0  0  0  0  0  0999 V2000
   36.7093   43.3182   57.3790 O   0  0  0  0  0  0  0  0  0  1  0  0
   37.6639   44.1292   57.0285 C   0  0  0  0  0  0  0  0  0  2  0  0
   38.9190   43.4966   56.9076 N   0  0  0  0  0  0  0  0  0  3  0  0
   39.6716   43.1910   58.0739 C   0  0  0  0  0  0  0  0  0  4  0  0
   39.0397   43.0047   59.2696 C   0  0  0  0  0  0  0  0  0  5  0  0
   39.7600   42.6915   60.4346 C   0  0  0  0  0  0  0  0  0  6  0  0
   41.1143   42.5770   60.3350 C   0  0  0  0  0  0  0  0  0  7  0  0
   41.7477   42.7632   59.1327 C   0  0  0  0  0  0  0  0  0  8  0  0
   41.0193   43.0625   58.0439 N   0  0  0  0  0  0  0  0  0  9  0  0
   42.1753   42.1515   61.8534 Br  0  0  0  0  0  0  0  0  0 10  0  0
   37.3037   45.5161   56.8236 C   0  0  0  0  0  0  0  0  0 11  0  0
   36.7163   45.9246   55.1947 S   0  0  0  0  0  0  0  0  0 12  0  0
   37.1512   44.7122   53.9934 C   0  0  0  0  0  0  0  0  0 13  0  0
   37.1975   44.9843   52.6104 C   0  0  0  0  0  0  0  0  0 14  0  0
   37.5985   43.8565   52.0316 N   0  0  0  0  0  0  0  0  0 15  0  0
   37.7938   42.9464   52.9345 N   0  0  0  0  0  0  0  0  0 16  0  0
   37.5283   43.4396   54.1485 N   0  0  0  0  0  0  0  0  0 17  0  0
  1  2  2  0
  2  3  1  0
  3  4  1  0
  4  5  2  0
  5  6  1  0
  6  7  2  0
  7  8  1  0
  8  9  2  0
  4  9  1  0
  7 10  1  0
  2 11  1  0
 11 12  1  1
 12 13  1  0
 13 14  2  0
 14 15  1  0
 15 16  2  0
 16 17  1  0
 13 17  1  0
M  END
>  <fitscore>  (25) 
0.181671

$$$$
sQC_Substrate__STK243239_rank_25
     RDKit          3D

 17 18  0  0  0  0  0  0  0  0999 V2000
   39.5974   42.3272   56.0861 O   0  0  0  0  0  0  0  0  0  1  0  0
   38.4578   42.5961   56.6523 C   0  0  0  0  0  0  0  0  0  2  0  0
   38.5519   43.5796   57.6593 N   0  0  0  0  0  0  0  0  0  3  0  0
   39.7270   43.6674   58.4538 C   0  0  0  0  0  0  0  0  0  4  0  0
   39.7112   44.3626   59.6286 C   0  0  0  0  0  0  0  0  0  5  0  0
   40.8566   44.4555   60.4370 C   0  0  0  0  0  0  0  0  0  6  0  0
   41.9889   43.8269   60.0125 C   0  0  0  0  0  0  0  0  0  7  0  0
   42.0029   43.1279   58.8324 C   0  0  0  0  0  0  0  0  0  8  0  0
   40.8845   43.0661   58.0902 N   0  0  0  0  0  0  0  0  0  9  0  0
   43.5874   43.8905   61.0385 Br  0  0  0  0  0  0  0  0  0 10  0  0
   37.3015   41.8657   56.1780 C   0  0  0  0  0  0  0  0  0 11  0  0
   36.6032   42.4431   54.6469 S   0  0  0  0  0  0  0  0  0 12  0  0
   37.2903   43.9785   54.1249 C   0  0  0  0  0  0  0  0  0 13  0  0
   37.1773   45.1655   54.8781 C   0  0  0  0  0  0  0  0  0 14  0  0
   37.8444   46.0925   54.1974 N   0  0  0  0  0  0  0  0  0 15  0  0
   38.3401   45.5713   53.1183 N   0  0  0  0  0  0  0  0  0 16  0  0
   38.0182   44.2758   53.0444 N   0  0  0  0  0  0  0  0  0 17  0  0
  1  2  2  0
  2  3  1  0
  3  4  1  0
  4  5  2  0
  5  6  1  0
  6  7  2  0
  7  8  1  0
  8  9  2  0
  4  9  1  0
  7 10  1  0
  2 11  1  0
 11 12  1  1
 12 13  1  0
 13 14  2  0
 14 15  1  0
 15 16  2  0
 16 17  1  0
 13 17  1  0
M  END
>  <fitscore>  (26) 
0.181667

$$$$
sQC_Substrate__STK243239_rank_26
     RDKit          3D

 17 18  0  0  0  0  0  0  0  0999 V2000
   39.5882   45.4445   57.3256 O   0  0  0  0  0  0  0  0  0  1  0  0
   38.4856   44.7606   57.4159 C   0  0  0  0  0  0  0  0  0  2  0  0
   38.6964   43.3682   57.5002 N   0  0  0  0  0  0  0  0  0  3  0  0
   39.9225   42.8691   58.0173 C   0  0  0  0  0  0  0  0  0  4  0  0
   41.0833   43.5595   57.8184 C   0  0  0  0  0  0  0  0  0  5  0  0
   42.3065   43.0928   58.3283 C   0  0  0  0  0  0  0  0  0  6  0  0
   42.2998   41.9256   59.0319 C   0  0  0  0  0  0  0  0  0  7  0  0
   41.1325   41.2337   59.2319 C   0  0  0  0  0  0  0  0  0  8  0  0
   39.9855   41.7166   58.7253 N   0  0  0  0  0  0  0  0  0  9  0  0
   43.9028   41.2152   59.7654 Br  0  0  0  0  0  0  0  0  0 10  0  0
   37.2472   45.5101   57.4146 C   0  0  0  0  0  0  0  0  0 11  0  0
   36.8743   46.3747   55.9052 S   0  0  0  0  0  0  0  0  0 12  0  0
   36.7627   45.2972   54.5165 C   0  0  0  0  0  0  0  0  0 13  0  0
   37.2845   45.6240   53.2476 C   0  0  0  0  0  0  0  0  0 14  0  0
   37.0520   44.5666   52.4759 N   0  0  0  0  0  0  0  0  0 15  0  0
   36.4457   43.6485   53.1624 N   0  0  0  0  0  0  0  0  0 16  0  0
   36.2536   44.0656   54.4180 N   0  0  0  0  0  0  0  0  0 17  0  0
  1  2  2  0
  2  3  1  0
  3  4  1  0
  4  5  2  0
  5  6  1  0
  6  7  2  0
  7  8  1  0
  8  9  2  0
  4  9  1  0
  7 10  1  0
  2 11  1  0
 11 12  1  1
 12 13  1  0
 13 14  2  0
 14 15  1  0
 15 16  2  0
 16 17  1  0
 13 17  1  0
M  END
>  <fitscore>  (27) 
0.178029

$$$$
sQC_Substrate__STK243239_rank_27
     RDKit          3D

 17 18  0  0  0  0  0  0  0  0999 V2000
   39.8249   45.0256   56.2844 O   0  0  0  0  0  0  0  0  0  1  0  0
   39.3490   43.8208   56.4003 C   0  0  0  0  0  0  0  0  0  2  0  0
   38.7864   43.5611   57.6677 N   0  0  0  0  0  0  0  0  0  3  0  0
   39.6179   43.5458   58.8203 C   0  0  0  0  0  0  0  0  0  4  0  0
   39.0710   43.3743   60.0593 C   0  0  0  0  0  0  0  0  0  5  0  0
   39.8723   43.3450   61.2130 C   0  0  0  0  0  0  0  0  0  6  0  0
   41.2183   43.4921   61.0579 C   0  0  0  0  0  0  0  0  0  7  0  0
   41.7664   43.6631   59.8122 C   0  0  0  0  0  0  0  0  0  8  0  0
   40.9621   43.6858   58.7361 N   0  0  0  0  0  0  0  0  0  9  0  0
   42.3859   43.4615   62.5572 Br  0  0  0  0  0  0  0  0  0 10  0  0
   39.4670   42.9553   55.2460 C   0  0  0  0  0  0  0  0  0 11  0  0
   39.0152   43.6865   53.6883 S   0  0  0  0  0  0  0  0  0 12  0  0
   37.2708   43.8048   53.4755 C   0  0  0  0  0  0  0  0  0 13  0  0
   36.3541   43.6092   54.5293 C   0  0  0  0  0  0  0  0  0 14  0  0
   35.1496   43.8167   54.0061 N   0  0  0  0  0  0  0  0  0 15  0  0
   35.2637   44.1155   52.7494 N   0  0  0  0  0  0  0  0  0 16  0  0
   36.5523   44.1167   52.3929 N   0  0  0  0  0  0  0  0  0 17  0  0
  1  2  2  0
  2  3  1  0
  3  4  1  0
  4  5  2  0
  5  6  1  0
  6  7  2  0
  7  8  1  0
  8  9  2  0
  4  9  1  0
  7 10  1  0
  2 11  1  0
 11 12  1  1
 12 13  1  0
 13 14  2  0
 14 15  1  0
 15 16  2  0
 16 17  1  0
 13 17  1  0
M  END
>  <fitscore>  (28) 
0.177625

$$$$
sQC_Substrate__STK243239_rank_28
     RDKit          3D

 17 18  0  0  0  0  0  0  0  0999 V2000
   38.4711   44.3580   56.8206 O   0  0  0  0  0  0  0  0  0  1  0  0
   37.7747   43.2825   56.5972 C   0  0  0  0  0  0  0  0  0  2  0  0
   38.1497   42.1940   57.4125 N   0  0  0  0  0  0  0  0  0  3  0  0
   39.2238   42.3369   58.3322 C   0  0  0  0  0  0  0  0  0  4  0  0
   39.8632   43.5363   58.4601 C   0  0  0  0  0  0  0  0  0  5  0  0
   40.9208   43.7062   59.3694 C   0  0  0  0  0  0  0  0  0  6  0  0
   41.2902   42.6336   60.1247 C   0  0  0  0  0  0  0  0  0  7  0  0
   40.6460   41.4296   59.9959 C   0  0  0  0  0  0  0  0  0  8  0  0
   39.6403   41.3118   59.1127 N   0  0  0  0  0  0  0  0  0  9  0  0
   42.7059   42.7653   61.3859 Br  0  0  0  0  0  0  0  0  0 10  0  0
   36.7525   43.3637   55.5755 C   0  0  0  0  0  0  0  0  0 11  0  0
   37.3308   43.7599   53.9403 S   0  0  0  0  0  0  0  0  0 12  0  0
   37.6087   45.4849   53.7190 C   0  0  0  0  0  0  0  0  0 13  0  0
   37.4864   46.4225   54.7654 C   0  0  0  0  0  0  0  0  0 14  0  0
   37.8074   47.5998   54.2377 N   0  0  0  0  0  0  0  0  0 15  0  0
   38.1072   47.4508   52.9848 N   0  0  0  0  0  0  0  0  0 16  0  0
   37.9952   46.1651   52.6356 N   0  0  0  0  0  0  0  0  0 17  0  0
  1  2  2  0
  2  3  1  0
  3  4  1  0
  4  5  2  0
  5  6  1  0
  6  7  2  0
  7  8  1  0
  8  9  2  0
  4  9  1  0
  7 10  1  0
  2 11  1  0
 11 12  1  1
 12 13  1  0
 13 14  2  0
 14 15  1  0
 15 16  2  0
 16 17  1  0
 13 17  1  0
M  END
>  <fitscore>  (29) 
0.169159

$$$$
sQC_Substrate__STK243239_rank_29
     RDKit          3D

 17 18  0  0  0  0  0  0  0  0999 V2000
   37.6849   44.4172   58.0279 O   0  0  0  0  0  0  0  0  0  1  0  0
   37.8101   43.5827   57.0382 C   0  0  0  0  0  0  0  0  0  2  0  0
   39.0794   42.9696   56.9807 N   0  0  0  0  0  0  0  0  0  3  0  0
   39.8184   42.7613   58.1766 C   0  0  0  0  0  0  0  0  0  4  0  0
   41.0591   42.1938   58.1270 C   0  0  0  0  0  0  0  0  0  5  0  0
   41.8141   41.9869   59.2938 C   0  0  0  0  0  0  0  0  0  6  0  0
   41.2693   42.3725   60.4820 C   0  0  0  0  0  0  0  0  0  7  0  0
   40.0232   42.9437   60.5301 C   0  0  0  0  0  0  0  0  0  8  0  0
   39.3358   43.1218   59.3893 N   0  0  0  0  0  0  0  0  0  9  0  0
   42.2145   42.1388   62.1143 Br  0  0  0  0  0  0  0  0  0 10  0  0
   36.6626   43.4164   56.1716 C   0  0  0  0  0  0  0  0  0 11  0  0
   36.1389   44.8772   55.3017 S   0  0  0  0  0  0  0  0  0 12  0  0
   36.9461   45.0668   53.7478 C   0  0  0  0  0  0  0  0  0 13  0  0
   36.8292   46.2302   52.9592 C   0  0  0  0  0  0  0  0  0 14  0  0
   37.5992   46.0263   51.8947 N   0  0  0  0  0  0  0  0  0 15  0  0
   38.1589   44.8593   51.9763 N   0  0  0  0  0  0  0  0  0 16  0  0
   37.7788   44.2455   53.1016 N   0  0  0  0  0  0  0  0  0 17  0  0
  1  2  2  0
  2  3  1  0
  3  4  1  0
  4  5  2  0
  5  6  1  0
  6  7  2  0
  7  8  1  0
  8  9  2  0
  4  9  1  0
  7 10  1  0
  2 11  1  0
 11 12  1  1
 12 13  1  0
 13 14  2  0
 14 15  1  0
 15 16  2  0
 16 17  1  0
 13 17  1  0
M  END
>  <fitscore>  (30) 
0.165436

$$$$
sQC_Substrate__STK243239_rank_30
     RDKit          3D

 17 18  0  0  0  0  0  0  0  0999 V2000
   38.0374   44.5743   56.7943 O   0  0  0  0  0  0  0  0  0  1  0  0
   37.2008   43.5788   56.8171 C   0  0  0  0  0  0  0  0  0  2  0  0
   37.5660   42.5619   57.7242 N   0  0  0  0  0  0  0  0  0  3  0  0
   38.7036   42.7343   58.5586 C   0  0  0  0  0  0  0  0  0  4  0  0
   38.9963   41.8103   59.5199 C   0  0  0  0  0  0  0  0  0  5  0  0
   40.1207   41.9523   60.3504 C   0  0  0  0  0  0  0  0  0  6  0  0
   40.9151   43.0442   60.1660 C   0  0  0  0  0  0  0  0  0  7  0  0
   40.6204   43.9711   59.1988 C   0  0  0  0  0  0  0  0  0  8  0  0
   39.5340   43.7957   58.4277 N   0  0  0  0  0  0  0  0  0  9  0  0
   42.4611   43.3223   61.2360 Br  0  0  0  0  0  0  0  0  0 10  0  0
   36.0574   43.6628   55.9334 C   0  0  0  0  0  0  0  0  0 11  0  0
   36.4300   43.6690   54.1938 S   0  0  0  0  0  0  0  0  0 12  0  0
   37.3137   45.1086   53.6949 C   0  0  0  0  0  0  0  0  0 13  0  0
   37.7642   46.0867   54.6057 C   0  0  0  0  0  0  0  0  0 14  0  0
   38.4158   46.9883   53.8776 N   0  0  0  0  0  0  0  0  0 15  0  0
   38.3953   46.6400   52.6286 N   0  0  0  0  0  0  0  0  0 16  0  0
   37.7270   45.4912   52.4831 N   0  0  0  0  0  0  0  0  0 17  0  0
  1  2  2  0
  2  3  1  0
  3  4  1  0
  4  5  2  0
  5  6  1  0
  6  7  2  0
  7  8  1  0
  8  9  2  0
  4  9  1  0
  7 10  1  0
  2 11  1  0
 11 12  1  1
 12 13  1  0
 13 14  2  0
 14 15  1  0
 15 16  2  0
 16 17  1  0
 13 17  1  0
M  END
>  <fitscore>  (31) 
0.162836

$$$$
sQC_Substrate__STK243239_rank_31
     RDKit          3D

 17 18  0  0  0  0  0  0  0  0999 V2000
   37.4628   43.3941   58.3251 O   0  0  0  0  0  0  0  0  0  1  0  0
   38.1434   44.1074   57.4770 C   0  0  0  0  0  0  0  0  0  2  0  0
   39.4667   43.6521   57.2982 N   0  0  0  0  0  0  0  0  0  3  0  0
   40.1704   43.0782   58.3916 C   0  0  0  0  0  0  0  0  0  4  0  0
   39.4905   42.4244   59.3785 C   0  0  0  0  0  0  0  0  0  5  0  0
   40.1637   41.8396   60.4642 C   0  0  0  0  0  0  0  0  0  6  0  0
   41.5221   41.9435   60.5025 C   0  0  0  0  0  0  0  0  0  7  0  0
   42.2038   42.5997   59.5096 C   0  0  0  0  0  0  0  0  0  8  0  0
   41.5192   43.1451   58.4901 N   0  0  0  0  0  0  0  0  0  9  0  0
   42.5226   41.1813   61.9274 Br  0  0  0  0  0  0  0  0  0 10  0  0
   37.4602   45.2274   56.8652 C   0  0  0  0  0  0  0  0  0 11  0  0
   36.1526   44.8052   55.7351 S   0  0  0  0  0  0  0  0  0 12  0  0
   36.7285   44.5782   54.0863 C   0  0  0  0  0  0  0  0  0 13  0  0
   38.0694   44.7925   53.7054 C   0  0  0  0  0  0  0  0  0 14  0  0
   38.1335   44.4856   52.4133 N   0  0  0  0  0  0  0  0  0 15  0  0
   36.9649   44.1114   51.9938 N   0  0  0  0  0  0  0  0  0 16  0  0
   36.0810   44.1570   52.9959 N   0  0  0  0  0  0  0  0  0 17  0  0
  1  2  2  0
  2  3  1  0
  3  4  1  0
  4  5  2  0
  5  6  1  0
  6  7  2  0
  7  8  1  0
  8  9  2  0
  4  9  1  0
  7 10  1  0
  2 11  1  0
 11 12  1  1
 12 13  1  0
 13 14  2  0
 14 15  1  0
 15 16  2  0
 16 17  1  0
 13 17  1  0
M  END
>  <fitscore>  (32) 
0.14865

$$$$
sQC_Substrate__STK243239_rank_32
     RDKit          3D

 17 18  0  0  0  0  0  0  0  0999 V2000
   37.2156   44.2684   58.9420 O   0  0  0  0  0  0  0  0  0  1  0  0
   37.1296   43.8400   57.7170 C   0  0  0  0  0  0  0  0  0  2  0  0
   38.1624   42.9465   57.3631 N   0  0  0  0  0  0  0  0  0  3  0  0
   39.3246   42.8523   58.1758 C   0  0  0  0  0  0  0  0  0  4  0  0
   40.3656   42.0551   57.7955 C   0  0  0  0  0  0  0  0  0  5  0  0
   41.5295   41.9529   58.5758 C   0  0  0  0  0  0  0  0  0  6  0  0
   41.5896   42.6778   59.7284 C   0  0  0  0  0  0  0  0  0  7  0  0
   40.5434   43.4792   60.1085 C   0  0  0  0  0  0  0  0  0  8  0  0
   39.4488   43.5460   59.3320 N   0  0  0  0  0  0  0  0  0  9  0  0
   43.1233   42.6101   60.8488 Br  0  0  0  0  0  0  0  0  0 10  0  0
   36.0212   44.3319   56.9266 C   0  0  0  0  0  0  0  0  0 11  0  0
   36.0528   43.8933   55.2027 S   0  0  0  0  0  0  0  0  0 12  0  0
   37.0886   44.9543   54.2522 C   0  0  0  0  0  0  0  0  0 13  0  0
   36.6479   45.6139   53.0861 C   0  0  0  0  0  0  0  0  0 14  0  0
   37.6773   46.3463   52.6720 N   0  0  0  0  0  0  0  0  0 15  0  0
   38.6812   46.1852   53.4771 N   0  0  0  0  0  0  0  0  0 16  0  0
   38.3523   45.3373   54.4571 N   0  0  0  0  0  0  0  0  0 17  0  0
  1  2  2  0
  2  3  1  0
  3  4  1  0
  4  5  2  0
  5  6  1  0
  6  7  2  0
  7  8  1  0
  8  9  2  0
  4  9  1  0
  7 10  1  0
  2 11  1  0
 11 12  1  1
 12 13  1  0
 13 14  2  0
 14 15  1  0
 15 16  2  0
 16 17  1  0
 13 17  1  0
M  END
>  <fitscore>  (33) 
0.137381

$$$$
sQC_Substrate__STK243239_rank_33
     RDKit          3D

 17 18  0  0  0  0  0  0  0  0999 V2000
   40.3028   41.9796   56.6646 O   0  0  0  0  0  0  0  0  0  1  0  0
   39.7378   43.0652   56.2244 C   0  0  0  0  0  0  0  0  0  2  0  0
   39.1882   43.8646   57.2487 N   0  0  0  0  0  0  0  0  0  3  0  0
   39.7048   43.7743   58.5697 C   0  0  0  0  0  0  0  0  0  4  0  0
   40.7162   42.9023   58.8533 C   0  0  0  0  0  0  0  0  0  5  0  0
   41.2512   42.8016   60.1486 C   0  0  0  0  0  0  0  0  0  6  0  0
   40.7292   43.6051   61.1178 C   0  0  0  0  0  0  0  0  0  7  0  0
   39.7139   44.4816   60.8310 C   0  0  0  0  0  0  0  0  0  8  0  0
   39.2317   44.5439   59.5783 N   0  0  0  0  0  0  0  0  0  9  0  0
   41.3892   43.5458   62.8991 Br  0  0  0  0  0  0  0  0  0 10  0  0
   39.7570   43.2803   54.7931 C   0  0  0  0  0  0  0  0  0 11  0  0
   38.3117   42.7292   53.9141 S   0  0  0  0  0  0  0  0  0 12  0  0
   36.9728   43.8676   54.0295 C   0  0  0  0  0  0  0  0  0 13  0  0
   36.4912   44.3639   55.2586 C   0  0  0  0  0  0  0  0  0 14  0  0
   35.5189   45.2166   54.9501 N   0  0  0  0  0  0  0  0  0 15  0  0
   35.3788   45.2735   53.6621 N   0  0  0  0  0  0  0  0  0 16  0  0
   36.2560   44.4577   53.0684 N   0  0  0  0  0  0  0  0  0 17  0  0
  1  2  2  0
  2  3  1  0
  3  4  1  0
  4  5  2  0
  5  6  1  0
  6  7  2  0
  7  8  1  0
  8  9  2  0
  4  9  1  0
  7 10  1  0
  2 11  1  0
 11 12  1  1
 12 13  1  0
 13 14  2  0
 14 15  1  0
 15 16  2  0
 16 17  1  0
 13 17  1  0
M  END
>  <fitscore>  (34) 
0.135507

$$$$
sQC_Substrate__STK243239_rank_34
     RDKit          3D

 17 18  0  0  0  0  0  0  0  0999 V2000
   36.2423   43.7369   58.1215 O   0  0  0  0  0  0  0  0  0  1  0  0
   36.8998   43.7090   56.9997 C   0  0  0  0  0  0  0  0  0  2  0  0
   37.7588   42.5960   56.8824 N   0  0  0  0  0  0  0  0  0  3  0  0
   38.6150   42.2473   57.9619 C   0  0  0  0  0  0  0  0  0  4  0  0
   38.1489   42.2757   59.2447 C   0  0  0  0  0  0  0  0  0  5  0  0
   38.9721   41.9254   60.3281 C   0  0  0  0  0  0  0  0  0  6  0  0
   40.2552   41.5532   60.0592 C   0  0  0  0  0  0  0  0  0  7  0  0
   40.7217   41.5240   58.7696 C   0  0  0  0  0  0  0  0  0  8  0  0
   39.8997   41.8681   57.7639 N   0  0  0  0  0  0  0  0  0  9  0  0
   41.4441   41.0570   61.4565 Br  0  0  0  0  0  0  0  0  0 10  0  0
   36.6583   44.7927   56.0710 C   0  0  0  0  0  0  0  0  0 11  0  0
   37.9868   45.9628   55.8937 S   0  0  0  0  0  0  0  0  0 12  0  0
   38.3922   46.2780   54.2090 C   0  0  0  0  0  0  0  0  0 13  0  0
   39.7071   46.5418   53.7724 C   0  0  0  0  0  0  0  0  0 14  0  0
   39.6296   46.6866   52.4531 N   0  0  0  0  0  0  0  0  0 15  0  0
   38.4008   46.5344   52.0674 N   0  0  0  0  0  0  0  0  0 16  0  0
   37.6168   46.2824   53.1206 N   0  0  0  0  0  0  0  0  0 17  0  0
  1  2  2  0
  2  3  1  0
  3  4  1  0
  4  5  2  0
  5  6  1  0
  6  7  2  0
  7  8  1  0
  8  9  2  0
  4  9  1  0
  7 10  1  0
  2 11  1  0
 11 12  1  1
 12 13  1  0
 13 14  2  0
 14 15  1  0
 15 16  2  0
 16 17  1  0
 13 17  1  0
M  END
>  <fitscore>  (35) 
0.13314

$$$$
sQC_Substrate__STK243239_rank_35
     RDKit          3D

 17 18  0  0  0  0  0  0  0  0999 V2000
   37.3737   45.1473   57.3185 O   0  0  0  0  0  0  0  0  0  1  0  0
   37.0727   44.3044   56.3749 C   0  0  0  0  0  0  0  0  0  2  0  0
   37.5730   43.0055   56.6047 N   0  0  0  0  0  0  0  0  0  3  0  0
   38.3057   42.7300   57.7910 C   0  0  0  0  0  0  0  0  0  4  0  0
   38.5281   43.7187   58.7058 C   0  0  0  0  0  0  0  0  0  5  0  0
   39.2403   43.4694   59.8910 C   0  0  0  0  0  0  0  0  0  6  0  0
   39.7034   42.2052   60.1022 C   0  0  0  0  0  0  0  0  0  7  0  0
   39.4781   41.2127   59.1828 C   0  0  0  0  0  0  0  0  0  8  0  0
   38.7928   41.4961   58.0622 N   0  0  0  0  0  0  0  0  0  9  0  0
   40.6732   41.7680   61.6773 Br  0  0  0  0  0  0  0  0  0 10  0  0
   36.2947   44.8128   55.2651 C   0  0  0  0  0  0  0  0  0 11  0  0
   36.8940   46.3197   54.5335 S   0  0  0  0  0  0  0  0  0 12  0  0
   38.3427   46.0727   53.5627 C   0  0  0  0  0  0  0  0  0 13  0  0
   38.7724   46.9873   52.5789 C   0  0  0  0  0  0  0  0  0 14  0  0
   39.9062   46.4916   52.0927 N   0  0  0  0  0  0  0  0  0 15  0  0
   40.1887   45.3764   52.6912 N   0  0  0  0  0  0  0  0  0 16  0  0
   39.2492   45.0916   53.5988 N   0  0  0  0  0  0  0  0  0 17  0  0
  1  2  2  0
  2  3  1  0
  3  4  1  0
  4  5  2  0
  5  6  1  0
  6  7  2  0
  7  8  1  0
  8  9  2  0
  4  9  1  0
  7 10  1  0
  2 11  1  0
 11 12  1  1
 12 13  1  0
 13 14  2  0
 14 15  1  0
 15 16  2  0
 16 17  1  0
 13 17  1  0
M  END
>  <fitscore>  (36) 
0.122739

$$$$
sQC_Substrate__STK243239_rank_36
     RDKit          3D

 17 18  0  0  0  0  0  0  0  0999 V2000
   38.0795   44.7062   57.5215 O   0  0  0  0  0  0  0  0  0  1  0  0
   37.4847   43.7257   56.9079 C   0  0  0  0  0  0  0  0  0  2  0  0
   37.9413   42.4537   57.3123 N   0  0  0  0  0  0  0  0  0  3  0  0
   39.0084   42.3496   58.2453 C   0  0  0  0  0  0  0  0  0  4  0  0
   40.2568   42.7908   57.9126 C   0  0  0  0  0  0  0  0  0  5  0  0
   41.3258   42.7087   58.8207 C   0  0  0  0  0  0  0  0  0  6  0  0
   41.0783   42.1745   60.0498 C   0  0  0  0  0  0  0  0  0  7  0  0
   39.8232   41.7327   60.3829 C   0  0  0  0  0  0  0  0  0  8  0  0
   38.8303   41.8296   59.4828 N   0  0  0  0  0  0  0  0  0  9  0  0
   42.4579   42.0252   61.3485 Br  0  0  0  0  0  0  0  0  0 10  0  0
   36.4760   44.0789   55.9315 C   0  0  0  0  0  0  0  0  0 11  0  0
   36.6211   45.7083   55.2323 S   0  0  0  0  0  0  0  0  0 12  0  0
   37.6219   45.7377   53.7833 C   0  0  0  0  0  0  0  0  0 13  0  0
   38.2018   44.5784   53.2276 C   0  0  0  0  0  0  0  0  0 14  0  0
   38.8422   44.9810   52.1342 N   0  0  0  0  0  0  0  0  0 15  0  0
   38.6979   46.2616   51.9889 N   0  0  0  0  0  0  0  0  0 16  0  0
   37.9543   46.7557   52.9841 N   0  0  0  0  0  0  0  0  0 17  0  0
  1  2  2  0
  2  3  1  0
  3  4  1  0
  4  5  2  0
  5  6  1  0
  6  7  2  0
  7  8  1  0
  8  9  2  0
  4  9  1  0
  7 10  1  0
  2 11  1  0
 11 12  1  1
 12 13  1  0
 13 14  2  0
 14 15  1  0
 15 16  2  0
 16 17  1  0
 13 17  1  0
M  END
>  <fitscore>  (37) 
0.103084

$$$$
sQC_Substrate__STK243239_rank_37
     RDKit          3D

 17 18  0  0  0  0  0  0  0  0999 V2000
   38.3113   42.6801   55.0090 O   0  0  0  0  0  0  0  0  0  1  0  0
   37.5059   43.6822   54.8125 C   0  0  0  0  0  0  0  0  0  2  0  0
   36.3789   43.6688   55.6609 N   0  0  0  0  0  0  0  0  0  3  0  0
   36.5235   43.2857   57.0219 C   0  0  0  0  0  0  0  0  0  4  0  0
   36.9691   42.0350   57.3395 C   0  0  0  0  0  0  0  0  0  5  0  0
   37.1305   41.6355   58.6768 C   0  0  0  0  0  0  0  0  0  6  0  0
   36.8290   42.5383   59.6523 C   0  0  0  0  0  0  0  0  0  7  0  0
   36.3825   43.7949   59.3316 C   0  0  0  0  0  0  0  0  0  8  0  0
   36.2419   44.1340   58.0390 N   0  0  0  0  0  0  0  0  0  9  0  0
   37.0194   42.0939   61.4904 Br  0  0  0  0  0  0  0  0  0 10  0  0
   37.8769   44.6295   53.7826 C   0  0  0  0  0  0  0  0  0 11  0  0
   38.5097   46.1873   54.3639 S   0  0  0  0  0  0  0  0  0 12  0  0
   40.2449   46.1452   54.6629 C   0  0  0  0  0  0  0  0  0 13  0  0
   41.1920   46.6745   53.7618 C   0  0  0  0  0  0  0  0  0 14  0  0
   42.3778   46.5001   54.3372 N   0  0  0  0  0  0  0  0  0 15  0  0
   42.2253   45.9213   55.4876 N   0  0  0  0  0  0  0  0  0 16  0  0
   40.9285   45.6902   55.7170 N   0  0  0  0  0  0  0  0  0 17  0  0
  1  2  2  0
  2  3  1  0
  3  4  1  0
  4  5  2  0
  5  6  1  0
  6  7  2  0
  7  8  1  0
  8  9  2  0
  4  9  1  0
  7 10  1  0
  2 11  1  0
 11 12  1  1
 12 13  1  0
 13 14  2  0
 14 15  1  0
 15 16  2  0
 16 17  1  0
 13 17  1  0
M  END
>  <fitscore>  (38) 
0.0577206

$$$$
sQC_Substrate__STK243239_rank_38
     RDKit          3D

 17 18  0  0  0  0  0  0  0  0999 V2000
   38.2293   43.8091   55.5581 O   0  0  0  0  0  0  0  0  0  1  0  0
   36.9981   44.2060   55.6921 C   0  0  0  0  0  0  0  0  0  2  0  0
   36.4217   43.8349   56.9251 N   0  0  0  0  0  0  0  0  0  3  0  0
   37.2523   43.6284   58.0597 C   0  0  0  0  0  0  0  0  0  4  0  0
   38.6087   43.7328   57.9458 C   0  0  0  0  0  0  0  0  0  5  0  0
   39.4508   43.5437   59.0545 C   0  0  0  0  0  0  0  0  0  6  0  0
   38.8707   43.2531   60.2531 C   0  0  0  0  0  0  0  0  0  7  0  0
   37.5077   43.1497   60.3661 C   0  0  0  0  0  0  0  0  0  8  0  0
   36.7405   43.3375   59.2791 N   0  0  0  0  0  0  0  0  0  9  0  0
   39.9249   42.9848   61.8116 Br  0  0  0  0  0  0  0  0  0 10  0  0
   36.4235   44.9448   54.5877 C   0  0  0  0  0  0  0  0  0 11  0  0
   37.1661   44.6510   52.9980 S   0  0  0  0  0  0  0  0  0 12  0  0
   38.8910   45.0066   52.9793 C   0  0  0  0  0  0  0  0  0 13  0  0
   39.8239   44.3249   53.7879 C   0  0  0  0  0  0  0  0  0 14  0  0
   41.0133   44.8295   53.4746 N   0  0  0  0  0  0  0  0  0 15  0  0
   40.8758   45.7404   52.5619 N   0  0  0  0  0  0  0  0  0 16  0  0
   39.5858   45.8730   52.2362 N   0  0  0  0  0  0  0  0  0 17  0  0
  1  2  2  0
  2  3  1  0
  3  4  1  0
  4  5  2  0
  5  6  1  0
  6  7  2  0
  7  8  1  0
  8  9  2  0
  4  9  1  0
  7 10  1  0
  2 11  1  0
 11 12  1  1
 12 13  1  0
 13 14  2  0
 14 15  1  0
 15 16  2  0
 16 17  1  0
 13 17  1  0
M  END
>  <fitscore>  (39) 
0.0316033

$$$$
sQC_Substrate__STK243239_rank_39
     RDKit          3D

 17 18  0  0  0  0  0  0  0  0999 V2000
   37.0899   43.4011   58.0353 O   0  0  0  0  0  0  0  0  0  1  0  0
   38.0187   43.8691   57.2544 C   0  0  0  0  0  0  0  0  0  2  0  0
   39.2666   43.2340   57.4265 N   0  0  0  0  0  0  0  0  0  3  0  0
   39.4094   42.2086   58.4003 C   0  0  0  0  0  0  0  0  0  4  0  0
   40.3942   42.2886   59.3423 C   0  0  0  0  0  0  0  0  0  5  0  0
   40.5496   41.2934   60.3219 C   0  0  0  0  0  0  0  0  0  6  0  0
   39.6831   40.2416   60.3047 C   0  0  0  0  0  0  0  0  0  7  0  0
   38.6934   40.1633   59.3584 C   0  0  0  0  0  0  0  0  0  8  0  0
   38.5821   41.1374   58.4395 N   0  0  0  0  0  0  0  0  0  9  0  0
   39.8091   38.8481   61.5910 Br  0  0  0  0  0  0  0  0  0 10  0  0
   37.6420   44.9394   56.3556 C   0  0  0  0  0  0  0  0  0 11  0  0
   38.9454   45.5678   55.3205 S   0  0  0  0  0  0  0  0  0 12  0  0
   38.3362   46.3803   53.8815 C   0  0  0  0  0  0  0  0  0 13  0  0
   38.8987   46.1979   52.6011 C   0  0  0  0  0  0  0  0  0 14  0  0
   38.1599   46.9293   51.7723 N   0  0  0  0  0  0  0  0  0 15  0  0
   37.2177   47.5247   52.4353 N   0  0  0  0  0  0  0  0  0 16  0  0
   37.2983   47.2085   53.7318 N   0  0  0  0  0  0  0  0  0 17  0  0
  1  2  2  0
  2  3  1  0
  3  4  1  0
  4  5  2  0
  5  6  1  0
  6  7  2  0
  7  8  1  0
  8  9  2  0
  4  9  1  0
  7 10  1  0
  2 11  1  0
 11 12  1  1
 12 13  1  0
 13 14  2  0
 14 15  1  0
 15 16  2  0
 16 17  1  0
 13 17  1  0
M  END
>  <fitscore>  (40) 
-0.17494

$$$$
