sQC_Substrate__STK954214_rank_0
     RDKit          3D

 15 16  0  0  0  0  0  0  0  0999 V2000
   36.0363   45.7459   56.4185 C   0  0  0  0  0  0  0  0  0  1  0  0
   36.7707   45.4701   55.1630 C   0  0  0  0  0  0  0  0  0  2  0  0
   36.4535   45.9778   53.9670 N   0  0  0  0  0  0  0  0  0  3  0  0
   37.3349   45.5032   53.1031 N   0  0  0  0  0  0  0  0  0  4  0  0
   38.2276   44.6862   53.7320 C   0  0  0  0  0  0  0  0  0  5  0  0
   37.8766   44.6544   55.0640 C   0  0  0  0  0  0  0  0  0  6  0  0
   38.5519   43.9055   56.1256 C   0  0  0  0  0  0  0  0  0  7  0  0
   38.0123   43.0362   56.9992 N   0  0  0  0  0  0  0  0  0  8  0  0
   38.9449   42.5656   57.8039 N   0  0  0  0  0  0  0  0  0  9  0  0
   40.1377   43.0976   57.5029 C   0  0  0  0  0  0  0  0  0 10  0  0
   39.9003   43.9515   56.4370 C   0  0  0  0  0  0  0  0  0 11  0  0
   41.4044   42.8288   58.1614 C   0  0  0  0  0  0  0  0  0 12  0  0
   41.4106   42.0477   59.1413 O   0  0  0  0  0  0  0  0  0 13  0  0
   42.6093   43.3861   57.7696 O   0  0  0  0  0  0  0  0  0 14  0  0
   39.3751   43.9489   53.1412 C   0  0  0  0  0  0  0  0  0 15  0  0
  1  2  1  1
  2  3  1  0
  3  4  1  0
  4  5  2  0
  5  6  1  0
  2  6  2  0
  6  7  1  0
  7  8  2  0
  8  9  1  0
  9 10  1  0
 10 11  2  0
  7 11  1  0
 10 12  1  0
 12 13  2  0
 12 14  1  0
 15  5  1  1
M  END
>  <fitscore>  (1) 
0.492159

$$$$
sQC_Substrate__STK954214_rank_1
     RDKit          3D

 15 16  0  0  0  0  0  0  0  0999 V2000
   39.2710   43.8195   53.2791 C   0  0  0  0  0  0  0  0  0  1  0  0
   38.1268   44.6495   53.7190 C   0  0  0  0  0  0  0  0  0  2  0  0
   37.3517   45.3727   52.9036 N   0  0  0  0  0  0  0  0  0  3  0  0
   36.4478   45.9688   53.6628 N   0  0  0  0  0  0  0  0  0  4  0  0
   36.6307   45.6366   54.9729 C   0  0  0  0  0  0  0  0  0  5  0  0
   37.7121   44.7844   55.0259 C   0  0  0  0  0  0  0  0  0  6  0  0
   38.2782   44.1685   56.2276 C   0  0  0  0  0  0  0  0  0  7  0  0
   37.6278   43.7384   57.3239 N   0  0  0  0  0  0  0  0  0  8  0  0
   38.4857   43.2420   58.1935 N   0  0  0  0  0  0  0  0  0  9  0  0
   39.7360   43.3195   57.7171 C   0  0  0  0  0  0  0  0  0 10  0  0
   39.6167   43.9071   56.4672 C   0  0  0  0  0  0  0  0  0 11  0  0
   40.9513   42.8780   58.3793 C   0  0  0  0  0  0  0  0  0 12  0  0
   40.8993   42.6167   59.6038 O   0  0  0  0  0  0  0  0  0 13  0  0
   42.1677   42.7281   57.7360 O   0  0  0  0  0  0  0  0  0 14  0  0
   35.8439   46.0803   56.1534 C   0  0  0  0  0  0  0  0  0 15  0  0
  1  2  1  1
  2  3  1  0
  3  4  1  0
  4  5  2  0
  5  6  1  0
  2  6  2  0
  6  7  1  0
  7  8  2  0
  8  9  1  0
  9 10  1  0
 10 11  2  0
  7 11  1  0
 10 12  1  0
 12 13  2  0
 12 14  1  0
 15  5  1  1
M  END
>  <fitscore>  (2) 
0.488813

$$$$
sQC_Substrate__STK954214_rank_2
     RDKit          3D

 15 16  0  0  0  0  0  0  0  0999 V2000
   39.5704   43.8003   53.2681 C   0  0  0  0  0  0  0  0  0  1  0  0
   38.3125   44.4699   53.6694 C   0  0  0  0  0  0  0  0  0  2  0  0
   37.4621   45.0637   52.8250 N   0  0  0  0  0  0  0  0  0  3  0  0
   36.4678   45.5408   53.5547 N   0  0  0  0  0  0  0  0  0  4  0  0
   36.6666   45.2599   54.8744 C   0  0  0  0  0  0  0  0  0  5  0  0
   37.8547   44.5680   54.9651 C   0  0  0  0  0  0  0  0  0  6  0  0
   38.4748   44.0579   56.1895 C   0  0  0  0  0  0  0  0  0  7  0  0
   37.8663   43.5882   57.2936 N   0  0  0  0  0  0  0  0  0  8  0  0
   38.7661   43.2206   58.1847 N   0  0  0  0  0  0  0  0  0  9  0  0
   40.0043   43.4283   57.7156 C   0  0  0  0  0  0  0  0  0 10  0  0
   39.8319   43.9606   56.4473 C   0  0  0  0  0  0  0  0  0 11  0  0
   41.2551   43.1504   58.4003 C   0  0  0  0  0  0  0  0  0 12  0  0
   41.2115   42.5319   59.4893 O   0  0  0  0  0  0  0  0  0 13  0  0
   42.4966   43.5293   57.9198 O   0  0  0  0  0  0  0  0  0 14  0  0
   35.8003   45.6096   56.0305 C   0  0  0  0  0  0  0  0  0 15  0  0
  1  2  1  1
  2  3  1  0
  3  4  1  0
  4  5  2  0
  5  6  1  0
  2  6  2  0
  6  7  1  0
  7  8  2  0
  8  9  1  0
  9 10  1  0
 10 11  2  0
  7 11  1  0
 10 12  1  0
 12 13  2  0
 12 14  1  0
 15  5  1  1
M  END
>  <fitscore>  (3) 
0.482164

$$$$
sQC_Substrate__STK954214_rank_3
     RDKit          3D

 15 16  0  0  0  0  0  0  0  0999 V2000
   35.2793   43.8134   55.8399 C   0  0  0  0  0  0  0  0  0  1  0  0
   36.3026   44.5593   55.0731 C   0  0  0  0  0  0  0  0  0  2  0  0
   36.0472   45.3299   54.0101 N   0  0  0  0  0  0  0  0  0  3  0  0
   37.2062   45.8211   53.6053 N   0  0  0  0  0  0  0  0  0  4  0  0
   38.2188   45.3732   54.4016 C   0  0  0  0  0  0  0  0  0  5  0  0
   37.6511   44.5565   55.3552 C   0  0  0  0  0  0  0  0  0  6  0  0
   38.3542   43.8494   56.4274 C   0  0  0  0  0  0  0  0  0  7  0  0
   37.8550   42.9482   57.2926 N   0  0  0  0  0  0  0  0  0  8  0  0
   38.8018   42.5348   58.1120 N   0  0  0  0  0  0  0  0  0  9  0  0
   39.9645   43.1387   57.8296 C   0  0  0  0  0  0  0  0  0 10  0  0
   39.6923   43.9773   56.7598 C   0  0  0  0  0  0  0  0  0 11  0  0
   41.2349   42.9472   58.5079 C   0  0  0  0  0  0  0  0  0 12  0  0
   41.3792   41.9276   59.2220 O   0  0  0  0  0  0  0  0  0 13  0  0
   42.2992   43.8269   58.4120 O   0  0  0  0  0  0  0  0  0 14  0  0
   39.6705   45.6770   54.3030 C   0  0  0  0  0  0  0  0  0 15  0  0
  1  2  1  1
  2  3  1  0
  3  4  1  0
  4  5  2  0
  5  6  1  0
  2  6  2  0
  6  7  1  0
  7  8  2  0
  8  9  1  0
  9 10  1  0
 10 11  2  0
  7 11  1  0
 10 12  1  0
 12 13  2  0
 12 14  1  0
 15  5  1  1
M  END
>  <fitscore>  (4) 
0.369241

$$$$
sQC_Substrate__STK954214_rank_4
     RDKit          3D

 15 16  0  0  0  0  0  0  0  0999 V2000
   38.3922   43.0118   53.1848 C   0  0  0  0  0  0  0  0  0  1  0  0
   37.7694   44.2424   53.7229 C   0  0  0  0  0  0  0  0  0  2  0  0
   37.2112   45.2027   52.9778 N   0  0  0  0  0  0  0  0  0  3  0  0
   36.7696   46.1279   53.8131 N   0  0  0  0  0  0  0  0  0  4  0  0
   37.0381   45.7742   55.1026 C   0  0  0  0  0  0  0  0  0  5  0  0
   37.6842   44.5579   55.0612 C   0  0  0  0  0  0  0  0  0  6  0  0
   38.1661   43.7876   56.2094 C   0  0  0  0  0  0  0  0  0  7  0  0
   38.0659   42.4626   56.4199 N   0  0  0  0  0  0  0  0  0  8  0  0
   38.6221   42.1441   57.5723 N   0  0  0  0  0  0  0  0  0  9  0  0
   39.1133   43.2359   58.1748 C   0  0  0  0  0  0  0  0  0 10  0  0
   38.8293   44.2875   57.3174 C   0  0  0  0  0  0  0  0  0 11  0  0
   39.7970   43.2930   59.4554 C   0  0  0  0  0  0  0  0  0 12  0  0
   40.3110   44.3806   59.8064 O   0  0  0  0  0  0  0  0  0 13  0  0
   39.9148   42.2138   60.3141 O   0  0  0  0  0  0  0  0  0 14  0  0
   36.7174   46.5205   56.3475 C   0  0  0  0  0  0  0  0  0 15  0  0
  1  2  1  1
  2  3  1  0
  3  4  1  0
  4  5  2  0
  5  6  1  0
  2  6  2  0
  6  7  1  0
  7  8  2  0
  8  9  1  0
  9 10  1  0
 10 11  2  0
  7 11  1  0
 10 12  1  0
 12 13  2  0
 12 14  1  0
 15  5  1  1
M  END
>  <fitscore>  (5) 
0.363753

$$$$
sQC_Substrate__STK954214_rank_5
     RDKit          3D

 15 16  0  0  0  0  0  0  0  0999 V2000
   37.7943   44.4953   59.7433 C   0  0  0  0  0  0  0  0  0  1  0  0
   38.8350   43.5703   59.2404 C   0  0  0  0  0  0  0  0  0  2  0  0
   39.7391   42.9507   60.0070 N   0  0  0  0  0  0  0  0  0  3  0  0
   40.4876   42.2175   59.2004 N   0  0  0  0  0  0  0  0  0  4  0  0
   40.0746   42.3565   57.9081 C   0  0  0  0  0  0  0  0  0  5  0  0
   39.0072   43.2277   57.9172 C   0  0  0  0  0  0  0  0  0  6  0  0
   38.2385   43.6764   56.7545 C   0  0  0  0  0  0  0  0  0  7  0  0
   37.0826   43.1764   56.2815 N   0  0  0  0  0  0  0  0  0  8  0  0
   36.7010   43.8504   55.2143 N   0  0  0  0  0  0  0  0  0  9  0  0
   37.5803   44.8218   54.9326 C   0  0  0  0  0  0  0  0  0 10  0  0
   38.5628   44.7211   55.9054 C   0  0  0  0  0  0  0  0  0 11  0  0
   37.5087   45.7731   53.8369 C   0  0  0  0  0  0  0  0  0 12  0  0
   38.4481   46.5907   53.6977 O   0  0  0  0  0  0  0  0  0 13  0  0
   36.4609   45.8304   52.9343 O   0  0  0  0  0  0  0  0  0 14  0  0
   40.6332   41.7149   56.6892 C   0  0  0  0  0  0  0  0  0 15  0  0
  1  2  1  1
  2  3  1  0
  3  4  1  0
  4  5  2  0
  5  6  1  0
  2  6  2  0
  6  7  1  0
  7  8  2  0
  8  9  1  0
  9 10  1  0
 10 11  2  0
  7 11  1  0
 10 12  1  0
 12 13  2  0
 12 14  1  0
 15  5  1  1
M  END
>  <fitscore>  (6) 
0.363548

$$$$
sQC_Substrate__STK954214_rank_6
     RDKit          3D

 15 16  0  0  0  0  0  0  0  0999 V2000
   38.8751   42.7823   59.5953 C   0  0  0  0  0  0  0  0  0  1  0  0
   40.0065   43.3543   58.8308 C   0  0  0  0  0  0  0  0  0  2  0  0
   41.2427   43.5250   59.3119 N   0  0  0  0  0  0  0  0  0  3  0  0
   41.9627   44.0570   58.3386 N   0  0  0  0  0  0  0  0  0  4  0  0
   41.1995   44.2344   57.2224 C   0  0  0  0  0  0  0  0  0  5  0  0
   39.9325   43.7851   57.5243 C   0  0  0  0  0  0  0  0  0  6  0  0
   38.7738   43.7785   56.6291 C   0  0  0  0  0  0  0  0  0  7  0  0
   37.8597   42.8055   56.4632 N   0  0  0  0  0  0  0  0  0  8  0  0
   36.9662   43.1721   55.5654 N   0  0  0  0  0  0  0  0  0  9  0  0
   37.2449   44.3969   55.0979 C   0  0  0  0  0  0  0  0  0 10  0  0
   38.3925   44.7929   55.7671 C   0  0  0  0  0  0  0  0  0 11  0  0
   36.4956   45.1419   54.1009 C   0  0  0  0  0  0  0  0  0 12  0  0
   36.5260   46.3938   54.1479 O   0  0  0  0  0  0  0  0  0 13  0  0
   35.7474   44.5493   53.0985 O   0  0  0  0  0  0  0  0  0 14  0  0
   41.6070   44.7987   55.9090 C   0  0  0  0  0  0  0  0  0 15  0  0
  1  2  1  1
  2  3  1  0
  3  4  1  0
  4  5  2  0
  5  6  1  0
  2  6  2  0
  6  7  1  0
  7  8  2  0
  8  9  1  0
  9 10  1  0
 10 11  2  0
  7 11  1  0
 10 12  1  0
 12 13  2  0
 12 14  1  0
 15  5  1  1
M  END
>  <fitscore>  (7) 
0.362934

$$$$
sQC_Substrate__STK954214_rank_7
     RDKit          3D

 15 16  0  0  0  0  0  0  0  0999 V2000
   39.1484   44.1606   52.8931 C   0  0  0  0  0  0  0  0  0  1  0  0
   37.8396   44.5176   53.4857 C   0  0  0  0  0  0  0  0  0  2  0  0
   36.7732   44.9254   52.7891 N   0  0  0  0  0  0  0  0  0  3  0  0
   35.8057   45.1460   53.6632 N   0  0  0  0  0  0  0  0  0  4  0  0
   36.2377   44.8832   54.9298 C   0  0  0  0  0  0  0  0  0  5  0  0
   37.5503   44.4759   54.8321 C   0  0  0  0  0  0  0  0  0  6  0  0
   38.4271   44.0877   55.9387 C   0  0  0  0  0  0  0  0  0  7  0  0
   38.5062   44.6349   57.1651 N   0  0  0  0  0  0  0  0  0  8  0  0
   39.4174   44.0077   57.8827 N   0  0  0  0  0  0  0  0  0  9  0  0
   39.9807   43.0224   57.1698 C   0  0  0  0  0  0  0  0  0 10  0  0
   39.3589   43.0634   55.9315 C   0  0  0  0  0  0  0  0  0 11  0  0
   41.0218   42.1105   57.6118 C   0  0  0  0  0  0  0  0  0 12  0  0
   41.5428   42.3034   58.7350 O   0  0  0  0  0  0  0  0  0 13  0  0
   41.4741   41.0375   56.8635 O   0  0  0  0  0  0  0  0  0 14  0  0
   35.4795   44.9977   56.2031 C   0  0  0  0  0  0  0  0  0 15  0  0
  1  2  1  1
  2  3  1  0
  3  4  1  0
  4  5  2  0
  5  6  1  0
  2  6  2  0
  6  7  1  0
  7  8  2  0
  8  9  1  0
  9 10  1  0
 10 11  2  0
  7 11  1  0
 10 12  1  0
 12 13  2  0
 12 14  1  0
 15  5  1  1
M  END
>  <fitscore>  (8) 
0.346726

$$$$
sQC_Substrate__STK954214_rank_8
     RDKit          3D

 15 16  0  0  0  0  0  0  0  0999 V2000
   35.3702   43.3166   56.5303 C   0  0  0  0  0  0  0  0  0  1  0  0
   35.9991   44.3302   55.6534 C   0  0  0  0  0  0  0  0  0  2  0  0
   35.3286   45.2308   54.9266 N   0  0  0  0  0  0  0  0  0  3  0  0
   36.2307   45.9523   54.2830 N   0  0  0  0  0  0  0  0  0  4  0  0
   37.4895   45.5250   54.5876 C   0  0  0  0  0  0  0  0  0  5  0  0
   37.3569   44.4771   55.4722 C   0  0  0  0  0  0  0  0  0  6  0  0
   38.4435   43.7028   56.0753 C   0  0  0  0  0  0  0  0  0  7  0  0
   38.4964   42.3756   56.2893 N   0  0  0  0  0  0  0  0  0  8  0  0
   39.6432   42.0537   56.8548 N   0  0  0  0  0  0  0  0  0  9  0  0
   40.3985   43.1452   57.0405 C   0  0  0  0  0  0  0  0  0 10  0  0
   39.6459   44.2004   56.5486 C   0  0  0  0  0  0  0  0  0 11  0  0
   41.7239   43.1991   57.6330 C   0  0  0  0  0  0  0  0  0 12  0  0
   42.0859   42.2494   58.3661 O   0  0  0  0  0  0  0  0  0 13  0  0
   42.6139   44.2406   57.4353 O   0  0  0  0  0  0  0  0  0 14  0  0
   38.7865   46.0532   54.0893 C   0  0  0  0  0  0  0  0  0 15  0  0
  1  2  1  1
  2  3  1  0
  3  4  1  0
  4  5  2  0
  5  6  1  0
  2  6  2  0
  6  7  1  0
  7  8  2  0
  8  9  1  0
  9 10  1  0
 10 11  2  0
  7 11  1  0
 10 12  1  0
 12 13  2  0
 12 14  1  0
 15  5  1  1
M  END
>  <fitscore>  (9) 
0.339466

$$$$
sQC_Substrate__STK954214_rank_9
     RDKit          3D

 15 16  0  0  0  0  0  0  0  0999 V2000
   39.6550   44.5106   53.0726 C   0  0  0  0  0  0  0  0  0  1  0  0
   38.2264   44.6619   53.4301 C   0  0  0  0  0  0  0  0  0  2  0  0
   37.2631   45.0337   52.5799 N   0  0  0  0  0  0  0  0  0  3  0  0
   36.1329   45.0537   53.2661 N   0  0  0  0  0  0  0  0  0  4  0  0
   36.3556   44.6957   54.5631 C   0  0  0  0  0  0  0  0  0  5  0  0
   37.7038   44.4393   54.6852 C   0  0  0  0  0  0  0  0  0  6  0  0
   38.4049   44.0212   55.9009 C   0  0  0  0  0  0  0  0  0  7  0  0
   37.9033   43.3663   56.9635 N   0  0  0  0  0  0  0  0  0  8  0  0
   38.8490   43.1687   57.8610 N   0  0  0  0  0  0  0  0  0  9  0  0
   40.0132   43.6802   57.4375 C   0  0  0  0  0  0  0  0  0 10  0  0
   39.7432   44.2251   56.1918 C   0  0  0  0  0  0  0  0  0 11  0  0
   41.2829   43.6614   58.1432 C   0  0  0  0  0  0  0  0  0 12  0  0
   41.3757   44.3021   59.2162 O   0  0  0  0  0  0  0  0  0 13  0  0
   42.4003   42.9757   57.6995 O   0  0  0  0  0  0  0  0  0 14  0  0
   35.3696   44.5874   55.6703 C   0  0  0  0  0  0  0  0  0 15  0  0
  1  2  1  1
  2  3  1  0
  3  4  1  0
  4  5  2  0
  5  6  1  0
  2  6  2  0
  6  7  1  0
  7  8  2  0
  8  9  1  0
  9 10  1  0
 10 11  2  0
  7 11  1  0
 10 12  1  0
 12 13  2  0
 12 14  1  0
 15  5  1  1
M  END
>  <fitscore>  (10) 
0.331899

$$$$
sQC_Substrate__STK954214_rank_10
     RDKit          3D

 15 16  0  0  0  0  0  0  0  0999 V2000
   35.3116   44.1228   57.0547 C   0  0  0  0  0  0  0  0  0  1  0  0
   35.9533   44.9330   55.9948 C   0  0  0  0  0  0  0  0  0  2  0  0
   35.3482   45.9098   55.3105 N   0  0  0  0  0  0  0  0  0  3  0  0
   36.2396   46.3916   54.4608 N   0  0  0  0  0  0  0  0  0  4  0  0
   37.4262   45.7316   54.5885 C   0  0  0  0  0  0  0  0  0  5  0  0
   37.2575   44.7856   55.5760 C   0  0  0  0  0  0  0  0  0  6  0  0
   38.2656   43.8391   56.0575 C   0  0  0  0  0  0  0  0  0  7  0  0
   38.2115   42.4950   56.0500 N   0  0  0  0  0  0  0  0  0  8  0  0
   39.3151   41.9946   56.5701 N   0  0  0  0  0  0  0  0  0  9  0  0
   40.1462   42.9774   56.9438 C   0  0  0  0  0  0  0  0  0 10  0  0
   39.4895   44.1553   56.6228 C   0  0  0  0  0  0  0  0  0 11  0  0
   41.4556   42.8280   57.5550 C   0  0  0  0  0  0  0  0  0 12  0  0
   42.2373   43.8071   57.5316 O   0  0  0  0  0  0  0  0  0 13  0  0
   41.8928   41.6644   58.1638 O   0  0  0  0  0  0  0  0  0 14  0  0
   38.6875   45.9512   53.8332 C   0  0  0  0  0  0  0  0  0 15  0  0
  1  2  1  1
  2  3  1  0
  3  4  1  0
  4  5  2  0
  5  6  1  0
  2  6  2  0
  6  7  1  0
  7  8  2  0
  8  9  1  0
  9 10  1  0
 10 11  2  0
  7 11  1  0
 10 12  1  0
 12 13  2  0
 12 14  1  0
 15  5  1  1
M  END
>  <fitscore>  (11) 
0.322216

$$$$
sQC_Substrate__STK954214_rank_11
     RDKit          3D

 15 16  0  0  0  0  0  0  0  0999 V2000
   37.5126   43.2796   59.4503 C   0  0  0  0  0  0  0  0  0  1  0  0
   38.8706   43.0046   58.9289 C   0  0  0  0  0  0  0  0  0  2  0  0
   39.8946   42.5606   59.6660 N   0  0  0  0  0  0  0  0  0  3  0  0
   40.9289   42.4385   58.8511 N   0  0  0  0  0  0  0  0  0  4  0  0
   40.5830   42.8019   57.5829 C   0  0  0  0  0  0  0  0  0  5  0  0
   39.2557   43.1703   57.6166 C   0  0  0  0  0  0  0  0  0  6  0  0
   38.4512   43.6349   56.4848 C   0  0  0  0  0  0  0  0  0  7  0  0
   37.1206   43.5316   56.3156 N   0  0  0  0  0  0  0  0  0  8  0  0
   36.7675   44.0703   55.1649 N   0  0  0  0  0  0  0  0  0  9  0  0
   37.8406   44.5522   54.5226 C   0  0  0  0  0  0  0  0  0 10  0  0
   38.9175   44.2812   55.3524 C   0  0  0  0  0  0  0  0  0 11  0  0
   37.8592   45.2163   53.2307 C   0  0  0  0  0  0  0  0  0 12  0  0
   36.7646   45.5391   52.7129 O   0  0  0  0  0  0  0  0  0 13  0  0
   39.0180   45.5149   52.5350 O   0  0  0  0  0  0  0  0  0 14  0  0
   41.4347   42.8159   56.3648 C   0  0  0  0  0  0  0  0  0 15  0  0
  1  2  1  1
  2  3  1  0
  3  4  1  0
  4  5  2  0
  5  6  1  0
  2  6  2  0
  6  7  1  0
  7  8  2  0
  8  9  1  0
  9 10  1  0
 10 11  2  0
  7 11  1  0
 10 12  1  0
 12 13  2  0
 12 14  1  0
 15  5  1  1
M  END
>  <fitscore>  (12) 
0.31256

$$$$
sQC_Substrate__STK954214_rank_12
     RDKit          3D

 15 16  0  0  0  0  0  0  0  0999 V2000
   41.4380   44.6263   56.8217 C   0  0  0  0  0  0  0  0  0  1  0  0
   40.6893   43.6408   57.6340 C   0  0  0  0  0  0  0  0  0  2  0  0
   41.2170   42.9082   58.6207 N   0  0  0  0  0  0  0  0  0  3  0  0
   40.2430   42.1537   59.1010 N   0  0  0  0  0  0  0  0  0  4  0  0
   39.0797   42.3917   58.4302 C   0  0  0  0  0  0  0  0  0  5  0  0
   39.3515   43.3505   57.4787 C   0  0  0  0  0  0  0  0  0  6  0  0
   38.4027   43.9209   56.5204 C   0  0  0  0  0  0  0  0  0  7  0  0
   37.0607   43.9598   56.6054 N   0  0  0  0  0  0  0  0  0  8  0  0
   36.5570   44.5576   55.5435 N   0  0  0  0  0  0  0  0  0  9  0  0
   37.5354   44.9401   54.7111 C   0  0  0  0  0  0  0  0  0 10  0  0
   38.7140   44.5405   55.3218 C   0  0  0  0  0  0  0  0  0 11  0  0
   37.3814   45.6273   53.4405 C   0  0  0  0  0  0  0  0  0 12  0  0
   36.3337   46.2863   53.2447 O   0  0  0  0  0  0  0  0  0 13  0  0
   38.3264   45.5975   52.4295 O   0  0  0  0  0  0  0  0  0 14  0  0
   37.7489   41.7653   58.6446 C   0  0  0  0  0  0  0  0  0 15  0  0
  1  2  1  1
  2  3  1  0
  3  4  1  0
  4  5  2  0
  5  6  1  0
  2  6  2  0
  6  7  1  0
  7  8  2  0
  8  9  1  0
  9 10  1  0
 10 11  2  0
  7 11  1  0
 10 12  1  0
 12 13  2  0
 12 14  1  0
 15  5  1  1
M  END
>  <fitscore>  (13) 
0.304308

$$$$
sQC_Substrate__STK954214_rank_13
     RDKit          3D

 15 16  0  0  0  0  0  0  0  0999 V2000
   39.8396   45.3185   58.8159 C   0  0  0  0  0  0  0  0  0  1  0  0
   40.4703   44.1261   58.2061 C   0  0  0  0  0  0  0  0  0  2  0  0
   41.6382   43.6003   58.5915 N   0  0  0  0  0  0  0  0  0  3  0  0
   41.8626   42.5541   57.8145 N   0  0  0  0  0  0  0  0  0  4  0  0
   40.8437   42.3950   56.9220 C   0  0  0  0  0  0  0  0  0  5  0  0
   39.9358   43.4032   57.1622 C   0  0  0  0  0  0  0  0  0  6  0  0
   38.6797   43.6337   56.4459 C   0  0  0  0  0  0  0  0  0  7  0  0
   37.6432   42.7891   56.2970 N   0  0  0  0  0  0  0  0  0  8  0  0
   36.6920   43.3610   55.5849 N   0  0  0  0  0  0  0  0  0  9  0  0
   37.0518   44.6027   55.2314 C   0  0  0  0  0  0  0  0  0 10  0  0
   38.3142   44.7875   55.7733 C   0  0  0  0  0  0  0  0  0 11  0  0
   36.2748   45.5463   54.4462 C   0  0  0  0  0  0  0  0  0 12  0  0
   35.5815   46.3954   55.0535 O   0  0  0  0  0  0  0  0  0 13  0  0
   36.2545   45.5635   53.0623 O   0  0  0  0  0  0  0  0  0 14  0  0
   40.6934   41.3527   55.8730 C   0  0  0  0  0  0  0  0  0 15  0  0
  1  2  1  1
  2  3  1  0
  3  4  1  0
  4  5  2  0
  5  6  1  0
  2  6  2  0
  6  7  1  0
  7  8  2  0
  8  9  1  0
  9 10  1  0
 10 11  2  0
  7 11  1  0
 10 12  1  0
 12 13  2  0
 12 14  1  0
 15  5  1  1
M  END
>  <fitscore>  (14) 
0.291522

$$$$
sQC_Substrate__STK954214_rank_14
     RDKit          3D

 15 16  0  0  0  0  0  0  0  0999 V2000
   35.3293   44.4309   56.1310 C   0  0  0  0  0  0  0  0  0  1  0  0
   36.2523   44.6933   55.0037 C   0  0  0  0  0  0  0  0  0  2  0  0
   35.8728   45.0919   53.7847 N   0  0  0  0  0  0  0  0  0  3  0  0
   36.9734   45.2176   53.0626 N   0  0  0  0  0  0  0  0  0  4  0  0
   38.0716   44.9020   53.8071 C   0  0  0  0  0  0  0  0  0  5  0  0
   37.6223   44.5609   55.0642 C   0  0  0  0  0  0  0  0  0  6  0  0
   38.4465   44.1496   56.2024 C   0  0  0  0  0  0  0  0  0  7  0  0
   38.1399   44.2050   57.5112 N   0  0  0  0  0  0  0  0  0  8  0  0
   39.1429   43.7419   58.2310 N   0  0  0  0  0  0  0  0  0  9  0  0
   40.1539   43.3606   57.4380 C   0  0  0  0  0  0  0  0  0 10  0  0
   39.7227   43.6152   56.1454 C   0  0  0  0  0  0  0  0  0 11  0  0
   41.4275   42.8005   57.8560 C   0  0  0  0  0  0  0  0  0 12  0  0
   41.6630   42.7112   59.0836 O   0  0  0  0  0  0  0  0  0 13  0  0
   42.3999   42.3579   56.9759 O   0  0  0  0  0  0  0  0  0 14  0  0
   39.4986   44.9083   53.3911 C   0  0  0  0  0  0  0  0  0 15  0  0
  1  2  1  1
  2  3  1  0
  3  4  1  0
  4  5  2  0
  5  6  1  0
  2  6  2  0
  6  7  1  0
  7  8  2  0
  8  9  1  0
  9 10  1  0
 10 11  2  0
  7 11  1  0
 10 12  1  0
 12 13  2  0
 12 14  1  0
 15  5  1  1
M  END
>  <fitscore>  (15) 
0.279085

$$$$
sQC_Substrate__STK954214_rank_15
     RDKit          3D

 15 16  0  0  0  0  0  0  0  0999 V2000
   38.0221   45.3612   52.8682 C   0  0  0  0  0  0  0  0  0  1  0  0
   37.0972   45.2585   54.0196 C   0  0  0  0  0  0  0  0  0  2  0  0
   35.7912   45.5436   53.9759 N   0  0  0  0  0  0  0  0  0  3  0  0
   35.3117   45.3314   55.1899 N   0  0  0  0  0  0  0  0  0  4  0  0
   36.3018   44.9081   56.0269 C   0  0  0  0  0  0  0  0  0  5  0  0
   37.4620   44.8558   55.2856 C   0  0  0  0  0  0  0  0  0  6  0  0
   38.7857   44.4544   55.7658 C   0  0  0  0  0  0  0  0  0  7  0  0
   39.9833   44.9534   55.4098 N   0  0  0  0  0  0  0  0  0  8  0  0
   40.9451   44.3307   56.0624 N   0  0  0  0  0  0  0  0  0  9  0  0
   40.4330   43.3965   56.8756 C   0  0  0  0  0  0  0  0  0 10  0  0
   39.0602   43.4658   56.6957 C   0  0  0  0  0  0  0  0  0 11  0  0
   41.1703   42.5057   57.7551 C   0  0  0  0  0  0  0  0  0 12  0  0
   42.4224   42.5267   57.7080 O   0  0  0  0  0  0  0  0  0 13  0  0
   40.5700   41.6320   58.6451 O   0  0  0  0  0  0  0  0  0 14  0  0
   36.2015   44.5578   57.4680 C   0  0  0  0  0  0  0  0  0 15  0  0
  1  2  1  1
  2  3  1  0
  3  4  1  0
  4  5  2  0
  5  6  1  0
  2  6  2  0
  6  7  1  0
  7  8  2  0
  8  9  1  0
  9 10  1  0
 10 11  2  0
  7 11  1  0
 10 12  1  0
 12 13  2  0
 12 14  1  0
 15  5  1  1
M  END
>  <fitscore>  (16) 
0.271855

$$$$
sQC_Substrate__STK954214_rank_16
     RDKit          3D

 15 16  0  0  0  0  0  0  0  0999 V2000
   38.9361   44.3519   53.0175 C   0  0  0  0  0  0  0  0  0  1  0  0
   37.6971   44.7135   53.7426 C   0  0  0  0  0  0  0  0  0  2  0  0
   36.5352   45.0251   53.1581 N   0  0  0  0  0  0  0  0  0  3  0  0
   35.6757   45.2861   54.1286 N   0  0  0  0  0  0  0  0  0  4  0  0
   36.2736   45.1457   55.3463 C   0  0  0  0  0  0  0  0  0  5  0  0
   37.5804   44.7759   55.1139 C   0  0  0  0  0  0  0  0  0  6  0  0
   38.6047   44.5119   56.1265 C   0  0  0  0  0  0  0  0  0  7  0  0
   39.6450   45.2900   56.4759 N   0  0  0  0  0  0  0  0  0  8  0  0
   40.3456   44.7077   57.4293 N   0  0  0  0  0  0  0  0  0  9  0  0
   39.8055   43.5247   57.7537 C   0  0  0  0  0  0  0  0  0 10  0  0
   38.6975   43.3892   56.9317 C   0  0  0  0  0  0  0  0  0 11  0  0
   40.2879   42.5906   58.7564 C   0  0  0  0  0  0  0  0  0 12  0  0
   39.6687   41.5121   58.9101 O   0  0  0  0  0  0  0  0  0 13  0  0
   41.3946   42.8218   59.5548 O   0  0  0  0  0  0  0  0  0 14  0  0
   35.6760   45.3417   56.6931 C   0  0  0  0  0  0  0  0  0 15  0  0
  1  2  1  1
  2  3  1  0
  3  4  1  0
  4  5  2  0
  5  6  1  0
  2  6  2  0
  6  7  1  0
  7  8  2  0
  8  9  1  0
  9 10  1  0
 10 11  2  0
  7 11  1  0
 10 12  1  0
 12 13  2  0
 12 14  1  0
 15  5  1  1
M  END
>  <fitscore>  (17) 
0.2544

$$$$
sQC_Substrate__STK954214_rank_17
     RDKit          3D

 15 16  0  0  0  0  0  0  0  0999 V2000
   38.5382   44.8387   52.5132 C   0  0  0  0  0  0  0  0  0  1  0  0
   37.5057   45.1015   53.5411 C   0  0  0  0  0  0  0  0  0  2  0  0
   36.2740   45.5560   53.2856 N   0  0  0  0  0  0  0  0  0  3  0  0
   35.6552   45.6612   54.4495 N   0  0  0  0  0  0  0  0  0  4  0  0
   36.4800   45.2764   55.4652 C   0  0  0  0  0  0  0  0  0  5  0  0
   37.6798   44.9117   54.8945 C   0  0  0  0  0  0  0  0  0  6  0  0
   38.8692   44.4292   55.5993 C   0  0  0  0  0  0  0  0  0  7  0  0
   40.1452   44.8238   55.4386 N   0  0  0  0  0  0  0  0  0  8  0  0
   40.9326   44.1540   56.2573 N   0  0  0  0  0  0  0  0  0  9  0  0
   40.2195   43.2904   56.9935 C   0  0  0  0  0  0  0  0  0 10  0  0
   38.9056   43.4563   56.5839 C   0  0  0  0  0  0  0  0  0 11  0  0
   40.7270   42.3783   58.0041 C   0  0  0  0  0  0  0  0  0 12  0  0
   41.7804   42.6876   58.6082 O   0  0  0  0  0  0  0  0  0 13  0  0
   40.1142   41.1837   58.3405 O   0  0  0  0  0  0  0  0  0 14  0  0
   36.1897   45.2390   56.9226 C   0  0  0  0  0  0  0  0  0 15  0  0
  1  2  1  1
  2  3  1  0
  3  4  1  0
  4  5  2  0
  5  6  1  0
  2  6  2  0
  6  7  1  0
  7  8  2  0
  8  9  1  0
  9 10  1  0
 10 11  2  0
  7 11  1  0
 10 12  1  0
 12 13  2  0
 12 14  1  0
 15  5  1  1
M  END
>  <fitscore>  (18) 
0.252444

$$$$
sQC_Substrate__STK954214_rank_18
     RDKit          3D

 15 16  0  0  0  0  0  0  0  0999 V2000
   35.9852   44.2857   57.6021 C   0  0  0  0  0  0  0  0  0  1  0  0
   36.2061   44.5690   56.1659 C   0  0  0  0  0  0  0  0  0  2  0  0
   35.2367   44.8350   55.2836 N   0  0  0  0  0  0  0  0  0  3  0  0
   35.8249   45.0314   54.1156 N   0  0  0  0  0  0  0  0  0  4  0  0
   37.1767   44.8943   54.2328 C   0  0  0  0  0  0  0  0  0  5  0  0
   37.4391   44.5954   55.5520 C   0  0  0  0  0  0  0  0  0  6  0  0
   38.7562   44.3608   56.1471 C   0  0  0  0  0  0  0  0  0  7  0  0
   39.9221   44.9590   55.8427 N   0  0  0  0  0  0  0  0  0  8  0  0
   40.8890   44.4773   56.5989 N   0  0  0  0  0  0  0  0  0  9  0  0
   40.4119   43.5437   57.4339 C   0  0  0  0  0  0  0  0  0 10  0  0
   39.0563   43.4608   57.1559 C   0  0  0  0  0  0  0  0  0 11  0  0
   41.1653   42.7857   58.4179 C   0  0  0  0  0  0  0  0  0 12  0  0
   40.5559   41.9323   59.1041 O   0  0  0  0  0  0  0  0  0 13  0  0
   42.5209   42.9504   58.6435 O   0  0  0  0  0  0  0  0  0 14  0  0
   38.2109   45.0308   53.1739 C   0  0  0  0  0  0  0  0  0 15  0  0
  1  2  1  1
  2  3  1  0
  3  4  1  0
  4  5  2  0
  5  6  1  0
  2  6  2  0
  6  7  1  0
  7  8  2  0
  8  9  1  0
  9 10  1  0
 10 11  2  0
  7 11  1  0
 10 12  1  0
 12 13  2  0
 12 14  1  0
 15  5  1  1
M  END
>  <fitscore>  (19) 
0.238062

$$$$
sQC_Substrate__STK954214_rank_19
     RDKit          3D

 15 16  0  0  0  0  0  0  0  0999 V2000
   37.3119   44.1217   59.6193 C   0  0  0  0  0  0  0  0  0  1  0  0
   38.5224   43.3796   59.2002 C   0  0  0  0  0  0  0  0  0  2  0  0
   39.3349   42.7159   60.0298 N   0  0  0  0  0  0  0  0  0  3  0  0
   40.2939   42.1891   59.2871 N   0  0  0  0  0  0  0  0  0  4  0  0
   40.1097   42.5073   57.9737 C   0  0  0  0  0  0  0  0  0  5  0  0
   38.9689   43.2764   57.9010 C   0  0  0  0  0  0  0  0  0  6  0  0
   38.3794   43.8488   56.6890 C   0  0  0  0  0  0  0  0  0  7  0  0
   37.0795   43.9086   56.3477 N   0  0  0  0  0  0  0  0  0  8  0  0
   36.9457   44.5005   55.1770 N   0  0  0  0  0  0  0  0  0  9  0  0
   38.1427   44.8579   54.6914 C   0  0  0  0  0  0  0  0  0 10  0  0
   39.0625   44.4486   55.6444 C   0  0  0  0  0  0  0  0  0 11  0  0
   38.4080   45.5313   53.4318 C   0  0  0  0  0  0  0  0  0 12  0  0
   37.4340   45.9661   52.7740 O   0  0  0  0  0  0  0  0  0 13  0  0
   39.6769   45.7220   52.9130 O   0  0  0  0  0  0  0  0  0 14  0  0
   40.9479   42.1238   56.8075 C   0  0  0  0  0  0  0  0  0 15  0  0
  1  2  1  1
  2  3  1  0
  3  4  1  0
  4  5  2  0
  5  6  1  0
  2  6  2  0
  6  7  1  0
  7  8  2  0
  8  9  1  0
  9 10  1  0
 10 11  2  0
  7 11  1  0
 10 12  1  0
 12 13  2  0
 12 14  1  0
 15  5  1  1
M  END
>  <fitscore>  (20) 
0.223253

$$$$
sQC_Substrate__STK954214_rank_20
     RDKit          3D

 15 16  0  0  0  0  0  0  0  0999 V2000
   34.8975   44.5975   56.5864 C   0  0  0  0  0  0  0  0  0  1  0  0
   35.7340   44.3511   55.3900 C   0  0  0  0  0  0  0  0  0  2  0  0
   35.3344   44.5423   54.1280 N   0  0  0  0  0  0  0  0  0  3  0  0
   36.3523   44.2153   53.3499 N   0  0  0  0  0  0  0  0  0  4  0  0
   37.4165   43.8107   54.1008 C   0  0  0  0  0  0  0  0  0  5  0  0
   37.0328   43.8928   55.4216 C   0  0  0  0  0  0  0  0  0  6  0  0
   37.8507   43.5582   56.5891 C   0  0  0  0  0  0  0  0  0  7  0  0
   37.4357   43.2440   57.8297 N   0  0  0  0  0  0  0  0  0  8  0  0
   38.4735   43.0053   58.6072 N   0  0  0  0  0  0  0  0  0  9  0  0
   39.6168   43.1493   57.9226 C   0  0  0  0  0  0  0  0  0 10  0  0
   39.2334   43.5010   56.6377 C   0  0  0  0  0  0  0  0  0 11  0  0
   40.9664   42.9719   58.4302 C   0  0  0  0  0  0  0  0  0 12  0  0
   41.1106   42.4960   59.5805 O   0  0  0  0  0  0  0  0  0 13  0  0
   42.1065   43.2982   57.7165 O   0  0  0  0  0  0  0  0  0 14  0  0
   38.7535   43.3590   53.6342 C   0  0  0  0  0  0  0  0  0 15  0  0
  1  2  1  1
  2  3  1  0
  3  4  1  0
  4  5  2  0
  5  6  1  0
  2  6  2  0
  6  7  1  0
  7  8  2  0
  8  9  1  0
  9 10  1  0
 10 11  2  0
  7 11  1  0
 10 12  1  0
 12 13  2  0
 12 14  1  0
 15  5  1  1
M  END
>  <fitscore>  (21) 
0.216668

$$$$
sQC_Substrate__STK954214_rank_21
     RDKit          3D

 15 16  0  0  0  0  0  0  0  0999 V2000
   36.4279   41.9836   55.0313 C   0  0  0  0  0  0  0  0  0  1  0  0
   36.3464   43.4486   54.8349 C   0  0  0  0  0  0  0  0  0  2  0  0
   35.3470   44.0793   54.2085 N   0  0  0  0  0  0  0  0  0  3  0  0
   35.6317   45.3704   54.2358 N   0  0  0  0  0  0  0  0  0  4  0  0
   36.8152   45.5848   54.8789 C   0  0  0  0  0  0  0  0  0  5  0  0
   37.2897   44.3525   55.2722 C   0  0  0  0  0  0  0  0  0  6  0  0
   38.5336   44.0888   55.9983 C   0  0  0  0  0  0  0  0  0  7  0  0
   39.6503   43.4938   55.5413 N   0  0  0  0  0  0  0  0  0  8  0  0
   40.5574   43.4392   56.4968 N   0  0  0  0  0  0  0  0  0  9  0  0
   40.0871   43.9916   57.6236 C   0  0  0  0  0  0  0  0  0 10  0  0
   38.8006   44.4085   57.3189 C   0  0  0  0  0  0  0  0  0 11  0  0
   40.7865   44.1208   58.8904 C   0  0  0  0  0  0  0  0  0 12  0  0
   41.9027   43.5642   59.0120 O   0  0  0  0  0  0  0  0  0 13  0  0
   40.2918   44.8244   59.9748 O   0  0  0  0  0  0  0  0  0 14  0  0
   37.5036   46.8775   55.1330 C   0  0  0  0  0  0  0  0  0 15  0  0
  1  2  1  1
  2  3  1  0
  3  4  1  0
  4  5  2  0
  5  6  1  0
  2  6  2  0
  6  7  1  0
  7  8  2  0
  8  9  1  0
  9 10  1  0
 10 11  2  0
  7 11  1  0
 10 12  1  0
 12 13  2  0
 12 14  1  0
 15  5  1  1
M  END
>  <fitscore>  (22) 
0.214238

$$$$
sQC_Substrate__STK954214_rank_22
     RDKit          3D

 15 16  0  0  0  0  0  0  0  0999 V2000
   38.0296   43.7772   59.3235 C   0  0  0  0  0  0  0  0  0  1  0  0
   39.4087   43.3872   58.9525 C   0  0  0  0  0  0  0  0  0  2  0  0
   40.3587   43.0259   59.8219 N   0  0  0  0  0  0  0  0  0  3  0  0
   41.4423   42.7537   59.1145 N   0  0  0  0  0  0  0  0  0  4  0  0
   41.2024   42.9365   57.7844 C   0  0  0  0  0  0  0  0  0  5  0  0
   39.8924   43.3459   57.6631 C   0  0  0  0  0  0  0  0  0  6  0  0
   39.1900   43.6627   56.4180 C   0  0  0  0  0  0  0  0  0  7  0  0
   39.4251   43.1752   55.1864 N   0  0  0  0  0  0  0  0  0  8  0  0
   38.5803   43.7027   54.3221 N   0  0  0  0  0  0  0  0  0  9  0  0
   37.7519   44.5583   54.9368 C   0  0  0  0  0  0  0  0  0 10  0  0
   38.1301   44.5414   56.2704 C   0  0  0  0  0  0  0  0  0 11  0  0
   36.6868   45.3339   54.3248 C   0  0  0  0  0  0  0  0  0 12  0  0
   35.7923   45.8034   55.0664 O   0  0  0  0  0  0  0  0  0 13  0  0
   36.6007   45.5861   52.9666 O   0  0  0  0  0  0  0  0  0 14  0  0
   42.1383   42.7449   56.6456 C   0  0  0  0  0  0  0  0  0 15  0  0
  1  2  1  1
  2  3  1  0
  3  4  1  0
  4  5  2  0
  5  6  1  0
  2  6  2  0
  6  7  1  0
  7  8  2  0
  8  9  1  0
  9 10  1  0
 10 11  2  0
  7 11  1  0
 10 12  1  0
 12 13  2  0
 12 14  1  0
 15  5  1  1
M  END
>  <fitscore>  (23) 
0.211202

$$$$
sQC_Substrate__STK954214_rank_23
     RDKit          3D

 15 16  0  0  0  0  0  0  0  0999 V2000
   35.5353   43.7821   55.5844 C   0  0  0  0  0  0  0  0  0  1  0  0
   36.4130   44.4992   54.6320 C   0  0  0  0  0  0  0  0  0  2  0  0
   35.9868   45.1483   53.5431 N   0  0  0  0  0  0  0  0  0  3  0  0
   37.0575   45.6544   52.9548 N   0  0  0  0  0  0  0  0  0  4  0  0
   38.1828   45.3374   53.6572 C   0  0  0  0  0  0  0  0  0  5  0  0
   37.7831   44.5909   54.7441 C   0  0  0  0  0  0  0  0  0  6  0  0
   38.6501   44.0279   55.7811 C   0  0  0  0  0  0  0  0  0  7  0  0
   39.9793   43.8269   55.7313 N   0  0  0  0  0  0  0  0  0  8  0  0
   40.4001   43.2994   56.8643 N   0  0  0  0  0  0  0  0  0  9  0  0
   39.3760   43.1277   57.7117 C   0  0  0  0  0  0  0  0  0 10  0  0
   38.2576   43.5875   57.0339 C   0  0  0  0  0  0  0  0  0 11  0  0
   39.4371   42.5756   59.0541 C   0  0  0  0  0  0  0  0  0 12  0  0
   38.3865   42.1087   59.5527 O   0  0  0  0  0  0  0  0  0 13  0  0
   40.5907   42.5345   59.8179 O   0  0  0  0  0  0  0  0  0 14  0  0
   39.5913   45.7018   53.3524 C   0  0  0  0  0  0  0  0  0 15  0  0
  1  2  1  1
  2  3  1  0
  3  4  1  0
  4  5  2  0
  5  6  1  0
  2  6  2  0
  6  7  1  0
  7  8  2  0
  8  9  1  0
  9 10  1  0
 10 11  2  0
  7 11  1  0
 10 12  1  0
 12 13  2  0
 12 14  1  0
 15  5  1  1
M  END
>  <fitscore>  (24) 
0.207857

$$$$
sQC_Substrate__STK954214_rank_24
     RDKit          3D

 15 16  0  0  0  0  0  0  0  0999 V2000
   35.9220   43.7263   56.6831 C   0  0  0  0  0  0  0  0  0  1  0  0
   36.4699   44.1318   55.3689 C   0  0  0  0  0  0  0  0  0  2  0  0
   35.7600   44.2085   54.2380 N   0  0  0  0  0  0  0  0  0  3  0  0
   36.5924   44.6020   53.2888 N   0  0  0  0  0  0  0  0  0  4  0  0
   37.8450   44.7826   53.7972 C   0  0  0  0  0  0  0  0  0  5  0  0
   37.7824   44.4827   55.1405 C   0  0  0  0  0  0  0  0  0  6  0  0
   38.8894   44.5344   56.0975 C   0  0  0  0  0  0  0  0  0  7  0  0
   39.4788   45.6224   56.6255 N   0  0  0  0  0  0  0  0  0  8  0  0
   40.4414   45.2601   57.4507 N   0  0  0  0  0  0  0  0  0  9  0  0
   40.5338   43.9242   57.5074 C   0  0  0  0  0  0  0  0  0 10  0  0
   39.5517   43.4516   56.6509 C   0  0  0  0  0  0  0  0  0 11  0  0
   41.4693   43.1470   58.3020 C   0  0  0  0  0  0  0  0  0 12  0  0
   41.5193   41.9084   58.1178 O   0  0  0  0  0  0  0  0  0 13  0  0
   42.3117   43.6949   59.2539 O   0  0  0  0  0  0  0  0  0 14  0  0
   39.0741   45.2175   53.0833 C   0  0  0  0  0  0  0  0  0 15  0  0
  1  2  1  1
  2  3  1  0
  3  4  1  0
  4  5  2  0
  5  6  1  0
  2  6  2  0
  6  7  1  0
  7  8  2  0
  8  9  1  0
  9 10  1  0
 10 11  2  0
  7 11  1  0
 10 12  1  0
 12 13  2  0
 12 14  1  0
 15  5  1  1
M  END
>  <fitscore>  (25) 
0.205493

$$$$
sQC_Substrate__STK954214_rank_25
     RDKit          3D

 15 16  0  0  0  0  0  0  0  0999 V2000
   38.4566   43.6005   60.1017 C   0  0  0  0  0  0  0  0  0  1  0  0
   39.6917   43.5347   59.2881 C   0  0  0  0  0  0  0  0  0  2  0  0
   40.9282   43.4288   59.7868 N   0  0  0  0  0  0  0  0  0  3  0  0
   41.7560   43.3994   58.7560 N   0  0  0  0  0  0  0  0  0  4  0  0
   41.0630   43.4860   57.5846 C   0  0  0  0  0  0  0  0  0  5  0  0
   39.7274   43.5740   57.9114 C   0  0  0  0  0  0  0  0  0  6  0  0
   38.6066   43.6847   56.9757 C   0  0  0  0  0  0  0  0  0  7  0  0
   37.3964   43.1030   57.0590 N   0  0  0  0  0  0  0  0  0  8  0  0
   36.6573   43.4454   56.0220 N   0  0  0  0  0  0  0  0  0  9  0  0
   37.3389   44.2645   55.2090 C   0  0  0  0  0  0  0  0  0 10  0  0
   38.5802   44.4240   55.8052 C   0  0  0  0  0  0  0  0  0 11  0  0
   36.8665   44.8541   53.9681 C   0  0  0  0  0  0  0  0  0 12  0  0
   37.6944   45.4510   53.2411 O   0  0  0  0  0  0  0  0  0 13  0  0
   35.5517   44.7957   53.5395 O   0  0  0  0  0  0  0  0  0 14  0  0
   41.5969   43.4890   56.1973 C   0  0  0  0  0  0  0  0  0 15  0  0
  1  2  1  1
  2  3  1  0
  3  4  1  0
  4  5  2  0
  5  6  1  0
  2  6  2  0
  6  7  1  0
  7  8  2  0
  8  9  1  0
  9 10  1  0
 10 11  2  0
  7 11  1  0
 10 12  1  0
 12 13  2  0
 12 14  1  0
 15  5  1  1
M  END
>  <fitscore>  (26) 
0.195722

$$$$
sQC_Substrate__STK954214_rank_26
     RDKit          3D

 15 16  0  0  0  0  0  0  0  0999 V2000
   42.0207   43.8015   57.9599 C   0  0  0  0  0  0  0  0  0  1  0  0
   40.7840   43.4496   58.6937 C   0  0  0  0  0  0  0  0  0  2  0  0
   40.7316   43.1357   59.9927 N   0  0  0  0  0  0  0  0  0  3  0  0
   39.4644   42.8857   60.2759 N   0  0  0  0  0  0  0  0  0  4  0  0
   38.6883   43.0356   59.1645 C   0  0  0  0  0  0  0  0  0  5  0  0
   39.5264   43.4000   58.1333 C   0  0  0  0  0  0  0  0  0  6  0  0
   39.1371   43.6704   56.7479 C   0  0  0  0  0  0  0  0  0  7  0  0
   39.6210   43.1078   55.6258 N   0  0  0  0  0  0  0  0  0  8  0  0
   39.0169   43.6143   54.5688 N   0  0  0  0  0  0  0  0  0  9  0  0
   38.1108   44.5299   54.9389 C   0  0  0  0  0  0  0  0  0 10  0  0
   38.1781   44.5743   56.3228 C   0  0  0  0  0  0  0  0  0 11  0  0
   37.2466   45.3053   54.0658 C   0  0  0  0  0  0  0  0  0 12  0  0
   36.3415   45.9972   54.5877 O   0  0  0  0  0  0  0  0  0 13  0  0
   37.3639   45.3256   52.6867 O   0  0  0  0  0  0  0  0  0 14  0  0
   37.2187   42.8533   59.0367 C   0  0  0  0  0  0  0  0  0 15  0  0
  1  2  1  1
  2  3  1  0
  3  4  1  0
  4  5  2  0
  5  6  1  0
  2  6  2  0
  6  7  1  0
  7  8  2  0
  8  9  1  0
  9 10  1  0
 10 11  2  0
  7 11  1  0
 10 12  1  0
 12 13  2  0
 12 14  1  0
 15  5  1  1
M  END
>  <fitscore>  (27) 
0.189438

$$$$
sQC_Substrate__STK954214_rank_27
     RDKit          3D

 15 16  0  0  0  0  0  0  0  0999 V2000
   36.3481   42.1844   55.9063 C   0  0  0  0  0  0  0  0  0  1  0  0
   36.5954   43.3740   55.0606 C   0  0  0  0  0  0  0  0  0  2  0  0
   35.7455   43.8466   54.1423 N   0  0  0  0  0  0  0  0  0  3  0  0
   36.3171   44.9095   53.6020 N   0  0  0  0  0  0  0  0  0  4  0  0
   37.5389   45.1327   54.1652 C   0  0  0  0  0  0  0  0  0  5  0  0
   37.7336   44.1488   55.1099 C   0  0  0  0  0  0  0  0  0  6  0  0
   38.9083   43.9852   55.9686 C   0  0  0  0  0  0  0  0  0  7  0  0
   40.2058   44.0661   55.6228 N   0  0  0  0  0  0  0  0  0  8  0  0
   40.9692   43.8593   56.6779 N   0  0  0  0  0  0  0  0  0  9  0  0
   40.2179   43.6333   57.7645 C   0  0  0  0  0  0  0  0  0 10  0  0
   38.9052   43.7108   57.3258 C   0  0  0  0  0  0  0  0  0 11  0  0
   40.6903   43.3650   59.1119 C   0  0  0  0  0  0  0  0  0 12  0  0
   41.9234   43.4146   59.3299 O   0  0  0  0  0  0  0  0  0 13  0  0
   39.8567   43.0568   60.1730 O   0  0  0  0  0  0  0  0  0 14  0  0
   38.5113   46.2137   53.8561 C   0  0  0  0  0  0  0  0  0 15  0  0
  1  2  1  1
  2  3  1  0
  3  4  1  0
  4  5  2  0
  5  6  1  0
  2  6  2  0
  6  7  1  0
  7  8  2  0
  8  9  1  0
  9 10  1  0
 10 11  2  0
  7 11  1  0
 10 12  1  0
 12 13  2  0
 12 14  1  0
 15  5  1  1
M  END
>  <fitscore>  (28) 
0.185467

$$$$
sQC_Substrate__STK954214_rank_28
     RDKit          3D

 15 16  0  0  0  0  0  0  0  0999 V2000
   36.9204   43.5759   58.7274 C   0  0  0  0  0  0  0  0  0  1  0  0
   38.1738   42.7884   58.7437 C   0  0  0  0  0  0  0  0  0  2  0  0
   38.5468   41.9695   59.7333 N   0  0  0  0  0  0  0  0  0  3  0  0
   39.7130   41.4529   59.3845 N   0  0  0  0  0  0  0  0  0  4  0  0
   40.1030   41.9325   58.1688 C   0  0  0  0  0  0  0  0  0  5  0  0
   39.1189   42.7969   57.7413 C   0  0  0  0  0  0  0  0  0  6  0  0
   39.1058   43.5503   56.4859 C   0  0  0  0  0  0  0  0  0  7  0  0
   39.9949   43.4971   55.4776 N   0  0  0  0  0  0  0  0  0  8  0  0
   39.6393   44.3267   54.5163 N   0  0  0  0  0  0  0  0  0  9  0  0
   38.5056   44.9639   54.8408 C   0  0  0  0  0  0  0  0  0 10  0  0
   38.1567   44.4783   56.0915 C   0  0  0  0  0  0  0  0  0 11  0  0
   37.8008   45.9522   54.0428 C   0  0  0  0  0  0  0  0  0 12  0  0
   37.1648   46.8528   54.6385 O   0  0  0  0  0  0  0  0  0 13  0  0
   37.7899   45.9586   52.6587 O   0  0  0  0  0  0  0  0  0 14  0  0
   41.3404   41.6159   57.4084 C   0  0  0  0  0  0  0  0  0 15  0  0
  1  2  1  1
  2  3  1  0
  3  4  1  0
  4  5  2  0
  5  6  1  0
  2  6  2  0
  6  7  1  0
  7  8  2  0
  8  9  1  0
  9 10  1  0
 10 11  2  0
  7 11  1  0
 10 12  1  0
 12 13  2  0
 12 14  1  0
 15  5  1  1
M  END
>  <fitscore>  (29) 
0.141884

$$$$
sQC_Substrate__STK954214_rank_29
     RDKit          3D

 15 16  0  0  0  0  0  0  0  0999 V2000
   41.6913   42.8652   56.4842 C   0  0  0  0  0  0  0  0  0  1  0  0
   40.7065   42.7254   57.5807 C   0  0  0  0  0  0  0  0  0  2  0  0
   40.9367   42.0915   58.7357 N   0  0  0  0  0  0  0  0  0  3  0  0
   39.8270   42.1805   59.4495 N   0  0  0  0  0  0  0  0  0  4  0  0
   38.8721   42.8713   58.7633 C   0  0  0  0  0  0  0  0  0  5  0  0
   39.4250   43.2304   57.5535 C   0  0  0  0  0  0  0  0  0  6  0  0
   38.7684   43.9869   56.4855 C   0  0  0  0  0  0  0  0  0  7  0  0
   37.4556   44.0462   56.1978 N   0  0  0  0  0  0  0  0  0  8  0  0
   37.2546   44.8360   55.1612 N   0  0  0  0  0  0  0  0  0  9  0  0
   38.4171   45.3335   54.7170 C   0  0  0  0  0  0  0  0  0 10  0  0
   39.3873   44.8005   55.5515 C   0  0  0  0  0  0  0  0  0 11  0  0
   38.6080   46.2389   53.5970 C   0  0  0  0  0  0  0  0  0 12  0  0
   37.6047   46.5695   52.9227 O   0  0  0  0  0  0  0  0  0 13  0  0
   39.8363   46.7601   53.2289 O   0  0  0  0  0  0  0  0  0 14  0  0
   37.4875   43.2004   59.1923 C   0  0  0  0  0  0  0  0  0 15  0  0
  1  2  1  1
  2  3  1  0
  3  4  1  0
  4  5  2  0
  5  6  1  0
  2  6  2  0
  6  7  1  0
  7  8  2  0
  8  9  1  0
  9 10  1  0
 10 11  2  0
  7 11  1  0
 10 12  1  0
 12 13  2  0
 12 14  1  0
 15  5  1  1
M  END
>  <fitscore>  (30) 
0.138291

$$$$
sQC_Substrate__STK954214_rank_30
     RDKit          3D

 15 16  0  0  0  0  0  0  0  0999 V2000
   35.2840   44.0749   56.4818 C   0  0  0  0  0  0  0  0  0  1  0  0
   36.1826   45.1452   55.9935 C   0  0  0  0  0  0  0  0  0  2  0  0
   35.7782   46.3533   55.5865 N   0  0  0  0  0  0  0  0  0  3  0  0
   36.8627   47.0202   55.2289 N   0  0  0  0  0  0  0  0  0  4  0  0
   37.9751   46.2503   55.4014 C   0  0  0  0  0  0  0  0  0  5  0  0
   37.5524   45.0354   55.8950 C   0  0  0  0  0  0  0  0  0  6  0  0
   38.3993   43.8900   56.2338 C   0  0  0  0  0  0  0  0  0  7  0  0
   38.3252   42.6342   55.7571 N   0  0  0  0  0  0  0  0  0  8  0  0
   39.2634   41.8863   56.3040 N   0  0  0  0  0  0  0  0  0  9  0  0
   39.9978   42.6069   57.1628 C   0  0  0  0  0  0  0  0  0 10  0  0
   39.4577   43.8831   57.1267 C   0  0  0  0  0  0  0  0  0 11  0  0
   41.1201   42.1390   57.9578 C   0  0  0  0  0  0  0  0  0 12  0  0
   41.4015   40.9183   57.9276 O   0  0  0  0  0  0  0  0  0 13  0  0
   41.9000   42.9642   58.7495 O   0  0  0  0  0  0  0  0  0 14  0  0
   39.3919   46.6054   55.1258 C   0  0  0  0  0  0  0  0  0 15  0  0
  1  2  1  1
  2  3  1  0
  3  4  1  0
  4  5  2  0
  5  6  1  0
  2  6  2  0
  6  7  1  0
  7  8  2  0
  8  9  1  0
  9 10  1  0
 10 11  2  0
  7 11  1  0
 10 12  1  0
 12 13  2  0
 12 14  1  0
 15  5  1  1
M  END
>  <fitscore>  (31) 
0.127033

$$$$
sQC_Substrate__STK954214_rank_31
     RDKit          3D

 15 16  0  0  0  0  0  0  0  0999 V2000
   41.8674   43.1955   57.2135 C   0  0  0  0  0  0  0  0  0  1  0  0
   40.8169   42.6650   58.1115 C   0  0  0  0  0  0  0  0  0  2  0  0
   41.0428   41.8678   59.1614 N   0  0  0  0  0  0  0  0  0  3  0  0
   39.8663   41.6106   59.7076 N   0  0  0  0  0  0  0  0  0  4  0  0
   38.8718   42.2382   59.0168 C   0  0  0  0  0  0  0  0  0  5  0  0
   39.4699   42.9239   57.9822 C   0  0  0  0  0  0  0  0  0  6  0  0
   38.7945   43.7445   56.9750 C   0  0  0  0  0  0  0  0  0  7  0  0
   37.5072   44.1348   56.9508 N   0  0  0  0  0  0  0  0  0  8  0  0
   37.2762   44.8663   55.8784 N   0  0  0  0  0  0  0  0  0  9  0  0
   38.3921   44.9940   55.1471 C   0  0  0  0  0  0  0  0  0 10  0  0
   39.3647   44.2846   55.8346 C   0  0  0  0  0  0  0  0  0 11  0  0
   38.5394   45.7237   53.8996 C   0  0  0  0  0  0  0  0  0 12  0  0
   37.6818   46.5918   53.6143 O   0  0  0  0  0  0  0  0  0 13  0  0
   39.5743   45.5167   53.0040 O   0  0  0  0  0  0  0  0  0 14  0  0
   37.4101   42.2187   59.2863 C   0  0  0  0  0  0  0  0  0 15  0  0
  1  2  1  1
  2  3  1  0
  3  4  1  0
  4  5  2  0
  5  6  1  0
  2  6  2  0
  6  7  1  0
  7  8  2  0
  8  9  1  0
  9 10  1  0
 10 11  2  0
  7 11  1  0
 10 12  1  0
 12 13  2  0
 12 14  1  0
 15  5  1  1
M  END
>  <fitscore>  (32) 
0.125557

$$$$
sQC_Substrate__STK954214_rank_32
     RDKit          3D

 15 16  0  0  0  0  0  0  0  0999 V2000
   37.0358   45.2939   53.1681 C   0  0  0  0  0  0  0  0  0  1  0  0
   36.6267   45.3416   54.5901 C   0  0  0  0  0  0  0  0  0  2  0  0
   35.4316   45.7546   55.0259 N   0  0  0  0  0  0  0  0  0  3  0  0
   35.4477   45.6516   56.3442 N   0  0  0  0  0  0  0  0  0  4  0  0
   36.6511   45.1721   56.7708 C   0  0  0  0  0  0  0  0  0  5  0  0
   37.4243   44.9667   55.6490 C   0  0  0  0  0  0  0  0  0  6  0  0
   38.7969   44.4579   55.6178 C   0  0  0  0  0  0  0  0  0  7  0  0
   39.8134   44.8620   54.8347 N   0  0  0  0  0  0  0  0  0  8  0  0
   40.8973   44.1603   55.1019 N   0  0  0  0  0  0  0  0  0  9  0  0
   40.6510   43.2646   56.0680 C   0  0  0  0  0  0  0  0  0 10  0  0
   39.3182   43.4444   56.4042 C   0  0  0  0  0  0  0  0  0 11  0  0
   41.5900   42.3120   56.6351 C   0  0  0  0  0  0  0  0  0 12  0  0
   42.7473   42.2623   56.1571 O   0  0  0  0  0  0  0  0  0 13  0  0
   41.2813   41.4530   57.6756 O   0  0  0  0  0  0  0  0  0 14  0  0
   37.0936   44.9047   58.1644 C   0  0  0  0  0  0  0  0  0 15  0  0
  1  2  1  1
  2  3  1  0
  3  4  1  0
  4  5  2  0
  5  6  1  0
  2  6  2  0
  6  7  1  0
  7  8  2  0
  8  9  1  0
  9 10  1  0
 10 11  2  0
  7 11  1  0
 10 12  1  0
 12 13  2  0
 12 14  1  0
 15  5  1  1
M  END
>  <fitscore>  (33) 
0.123063

$$$$
sQC_Substrate__STK954214_rank_33
     RDKit          3D

 15 16  0  0  0  0  0  0  0  0999 V2000
   39.2272   44.6823   53.0231 C   0  0  0  0  0  0  0  0  0  1  0  0
   37.8797   44.3558   53.5418 C   0  0  0  0  0  0  0  0  0  2  0  0
   36.7832   44.2261   52.7869 N   0  0  0  0  0  0  0  0  0  3  0  0
   35.7865   43.9343   53.6056 N   0  0  0  0  0  0  0  0  0  4  0  0
   36.2294   43.8730   54.8940 C   0  0  0  0  0  0  0  0  0  5  0  0
   37.5803   44.1431   54.8696 C   0  0  0  0  0  0  0  0  0  6  0  0
   38.4811   44.1880   56.0231 C   0  0  0  0  0  0  0  0  0  7  0  0
   38.2240   44.6553   57.2582 N   0  0  0  0  0  0  0  0  0  8  0  0
   39.2902   44.5240   58.0228 N   0  0  0  0  0  0  0  0  0  9  0  0
   40.2966   43.9673   57.3345 C   0  0  0  0  0  0  0  0  0 10  0  0
   39.7938   43.7491   56.0612 C   0  0  0  0  0  0  0  0  0 11  0  0
   41.6281   43.6619   57.8288 C   0  0  0  0  0  0  0  0  0 12  0  0
   42.4996   43.3008   57.0039 O   0  0  0  0  0  0  0  0  0 13  0  0
   41.9929   43.7463   59.1613 O   0  0  0  0  0  0  0  0  0 14  0  0
   35.4476   43.5763   56.1229 C   0  0  0  0  0  0  0  0  0 15  0  0
  1  2  1  1
  2  3  1  0
  3  4  1  0
  4  5  2  0
  5  6  1  0
  2  6  2  0
  6  7  1  0
  7  8  2  0
  8  9  1  0
  9 10  1  0
 10 11  2  0
  7 11  1  0
 10 12  1  0
 12 13  2  0
 12 14  1  0
 15  5  1  1
M  END
>  <fitscore>  (34) 
0.105104

$$$$
sQC_Substrate__STK954214_rank_34
     RDKit          3D

 15 16  0  0  0  0  0  0  0  0999 V2000
   41.6020   44.0428   57.1931 C   0  0  0  0  0  0  0  0  0  1  0  0
   40.5181   43.5556   58.0759 C   0  0  0  0  0  0  0  0  0  2  0  0
   40.7053   43.0081   59.2818 N   0  0  0  0  0  0  0  0  0  3  0  0
   39.5085   42.7036   59.7545 N   0  0  0  0  0  0  0  0  0  4  0  0
   38.5394   43.0511   58.8600 C   0  0  0  0  0  0  0  0  0  5  0  0
   39.1757   43.6031   57.7697 C   0  0  0  0  0  0  0  0  0  6  0  0
   38.5374   44.1213   56.5582 C   0  0  0  0  0  0  0  0  0  7  0  0
   37.2507   44.4736   56.3848 N   0  0  0  0  0  0  0  0  0  8  0  0
   37.0593   44.8950   55.1500 N   0  0  0  0  0  0  0  0  0  9  0  0
   38.2026   44.8419   54.4527 C   0  0  0  0  0  0  0  0  0 10  0  0
   39.1500   44.3513   55.3378 C   0  0  0  0  0  0  0  0  0 11  0  0
   38.3961   45.2208   53.0636 C   0  0  0  0  0  0  0  0  0 12  0  0
   37.4069   45.6410   52.4191 O   0  0  0  0  0  0  0  0  0 13  0  0
   39.6123   45.1452   52.4072 O   0  0  0  0  0  0  0  0  0 14  0  0
   37.0675   42.8876   58.9879 C   0  0  0  0  0  0  0  0  0 15  0  0
  1  2  1  1
  2  3  1  0
  3  4  1  0
  4  5  2  0
  5  6  1  0
  2  6  2  0
  6  7  1  0
  7  8  2  0
  8  9  1  0
  9 10  1  0
 10 11  2  0
  7 11  1  0
 10 12  1  0
 12 13  2  0
 12 14  1  0
 15  5  1  1
M  END
>  <fitscore>  (35) 
0.0941249

$$$$
sQC_Substrate__STK954214_rank_35
     RDKit          3D

 15 16  0  0  0  0  0  0  0  0999 V2000
   35.9662   45.5532   55.5285 C   0  0  0  0  0  0  0  0  0  1  0  0
   36.1155   45.3022   56.9798 C   0  0  0  0  0  0  0  0  0  2  0  0
   35.2627   45.7268   57.9186 N   0  0  0  0  0  0  0  0  0  3  0  0
   35.7334   45.3087   59.0815 N   0  0  0  0  0  0  0  0  0  4  0  0
   36.8921   44.6115   58.9046 C   0  0  0  0  0  0  0  0  0  5  0  0
   37.1527   44.5984   57.5517 C   0  0  0  0  0  0  0  0  0  6  0  0
   38.2949   43.9644   56.8902 C   0  0  0  0  0  0  0  0  0  7  0  0
   38.8559   42.7731   57.1654 N   0  0  0  0  0  0  0  0  0  8  0  0
   39.8672   42.5497   56.3492 N   0  0  0  0  0  0  0  0  0  9  0  0
   40.0221   43.5758   55.5010 C   0  0  0  0  0  0  0  0  0 10  0  0
   39.0277   44.4819   55.8355 C   0  0  0  0  0  0  0  0  0 11  0  0
   41.0238   43.7010   54.4563 C   0  0  0  0  0  0  0  0  0 12  0  0
   41.8164   42.7473   54.2759 O   0  0  0  0  0  0  0  0  0 13  0  0
   41.1554   44.8150   53.6453 O   0  0  0  0  0  0  0  0  0 14  0  0
   37.7470   43.9699   59.9376 C   0  0  0  0  0  0  0  0  0 15  0  0
  1  2  1  1
  2  3  1  0
  3  4  1  0
  4  5  2  0
  5  6  1  0
  2  6  2  0
  6  7  1  0
  7  8  2  0
  8  9  1  0
  9 10  1  0
 10 11  2  0
  7 11  1  0
 10 12  1  0
 12 13  2  0
 12 14  1  0
 15  5  1  1
M  END
>  <fitscore>  (36) 
0.0243524

$$$$
sQC_Substrate__STK954214_rank_36
     RDKit          3D

 15 16  0  0  0  0  0  0  0  0999 V2000
   38.4968   42.2981   58.5816 C   0  0  0  0  0  0  0  0  0  1  0  0
   37.5385   43.4235   58.5003 C   0  0  0  0  0  0  0  0  0  2  0  0
   36.7470   43.8246   59.5011 N   0  0  0  0  0  0  0  0  0  3  0  0
   36.0426   44.8473   59.0465 N   0  0  0  0  0  0  0  0  0  4  0  0
   36.3723   45.1155   57.7506 C   0  0  0  0  0  0  0  0  0  5  0  0
   37.3379   44.2040   57.3829 C   0  0  0  0  0  0  0  0  0  6  0  0
   37.9936   44.1079   56.0772 C   0  0  0  0  0  0  0  0  0  7  0  0
   37.4425   44.2602   54.8594 N   0  0  0  0  0  0  0  0  0  8  0  0
   38.3584   44.0985   53.9247 N   0  0  0  0  0  0  0  0  0  9  0  0
   39.5509   43.8333   54.4760 C   0  0  0  0  0  0  0  0  0 10  0  0
   39.3314   43.8367   55.8447 C   0  0  0  0  0  0  0  0  0 11  0  0
   40.8019   43.5946   53.7770 C   0  0  0  0  0  0  0  0  0 12  0  0
   40.7862   43.5650   52.5243 O   0  0  0  0  0  0  0  0  0 13  0  0
   42.0145   43.3973   54.4145 O   0  0  0  0  0  0  0  0  0 14  0  0
   35.8257   46.1744   56.8621 C   0  0  0  0  0  0  0  0  0 15  0  0
  1  2  1  1
  2  3  1  0
  3  4  1  0
  4  5  2  0
  5  6  1  0
  2  6  2  0
  6  7  1  0
  7  8  2  0
  8  9  1  0
  9 10  1  0
 10 11  2  0
  7 11  1  0
 10 12  1  0
 12 13  2  0
 12 14  1  0
 15  5  1  1
M  END
>  <fitscore>  (37) 
0.0135216

$$$$
sQC_Substrate__STK954214_rank_37
     RDKit          3D

 15 16  0  0  0  0  0  0  0  0999 V2000
   35.6630   44.2950   57.7790 C   0  0  0  0  0  0  0  0  0  1  0  0
   36.7707   43.5799   58.4524 C   0  0  0  0  0  0  0  0  0  2  0  0
   36.7394   43.1436   59.7163 N   0  0  0  0  0  0  0  0  0  3  0  0
   37.9034   42.5610   59.9496 N   0  0  0  0  0  0  0  0  0  4  0  0
   38.6953   42.6156   58.8406 C   0  0  0  0  0  0  0  0  0  5  0  0
   37.9776   43.2712   57.8641 C   0  0  0  0  0  0  0  0  0  6  0  0
   38.4259   43.5637   56.5012 C   0  0  0  0  0  0  0  0  0  7  0  0
   38.6790   42.6936   55.5070 N   0  0  0  0  0  0  0  0  0  8  0  0
   39.0633   43.3419   54.4250 N   0  0  0  0  0  0  0  0  0  9  0  0
   39.0825   44.6629   54.6506 C   0  0  0  0  0  0  0  0  0 10  0  0
   38.6790   44.8163   55.9679 C   0  0  0  0  0  0  0  0  0 11  0  0
   39.4501   45.7043   53.7067 C   0  0  0  0  0  0  0  0  0 12  0  0
   39.4766   46.8902   54.1110 O   0  0  0  0  0  0  0  0  0 13  0  0
   39.7741   45.4640   52.3827 O   0  0  0  0  0  0  0  0  0 14  0  0
   40.0733   42.0860   58.6667 C   0  0  0  0  0  0  0  0  0 15  0  0
  1  2  1  1
  2  3  1  0
  3  4  1  0
  4  5  2  0
  5  6  1  0
  2  6  2  0
  6  7  1  0
  7  8  2  0
  8  9  1  0
  9 10  1  0
 10 11  2  0
  7 11  1  0
 10 12  1  0
 12 13  2  0
 12 14  1  0
 15  5  1  1
M  END
>  <fitscore>  (38) 
-0.000729882

$$$$
sQC_Substrate__STK954214_rank_38
     RDKit          3D

 15 16  0  0  0  0  0  0  0  0999 V2000
   38.1261   42.7008   58.8714 C   0  0  0  0  0  0  0  0  0  1  0  0
   37.3705   43.7721   58.1835 C   0  0  0  0  0  0  0  0  0  2  0  0
   36.3178   44.4150   58.7006 N   0  0  0  0  0  0  0  0  0  3  0  0
   35.9209   45.2918   57.7938 N   0  0  0  0  0  0  0  0  0  4  0  0
   36.7121   45.2233   56.6851 C   0  0  0  0  0  0  0  0  0  5  0  0
   37.6539   44.2457   56.9212 C   0  0  0  0  0  0  0  0  0  6  0  0
   38.7171   43.8211   56.0084 C   0  0  0  0  0  0  0  0  0  7  0  0
   38.6831   43.7653   54.6647 N   0  0  0  0  0  0  0  0  0  8  0  0
   39.8382   43.3308   54.2003 N   0  0  0  0  0  0  0  0  0  9  0  0
   40.6856   43.0803   55.2080 C   0  0  0  0  0  0  0  0  0 10  0  0
   39.9838   43.3884   56.3631 C   0  0  0  0  0  0  0  0  0 11  0  0
   42.0489   42.5899   55.1005 C   0  0  0  0  0  0  0  0  0 12  0  0
   42.5364   42.4362   53.9564 O   0  0  0  0  0  0  0  0  0 13  0  0
   42.8442   42.2811   56.1904 O   0  0  0  0  0  0  0  0  0 14  0  0
   36.6190   46.0252   55.4369 C   0  0  0  0  0  0  0  0  0 15  0  0
  1  2  1  1
  2  3  1  0
  3  4  1  0
  4  5  2  0
  5  6  1  0
  2  6  2  0
  6  7  1  0
  7  8  2  0
  8  9  1  0
  9 10  1  0
 10 11  2  0
  7 11  1  0
 10 12  1  0
 12 13  2  0
 12 14  1  0
 15  5  1  1
M  END
>  <fitscore>  (39) 
-0.0359989

$$$$
sQC_Substrate__STK954214_rank_39
     RDKit          3D

 15 16  0  0  0  0  0  0  0  0999 V2000
   37.0834   46.7376   56.8043 C   0  0  0  0  0  0  0  0  0  1  0  0
   37.2043   45.5416   57.6683 C   0  0  0  0  0  0  0  0  0  2  0  0
   36.6778   45.4293   58.8927 N   0  0  0  0  0  0  0  0  0  3  0  0
   36.9983   44.2265   59.3389 N   0  0  0  0  0  0  0  0  0  4  0  0
   37.7332   43.5523   58.4086 C   0  0  0  0  0  0  0  0  0  5  0  0
   37.8751   44.3888   57.3230 C   0  0  0  0  0  0  0  0  0  6  0  0
   38.5908   44.0908   56.0809 C   0  0  0  0  0  0  0  0  0  7  0  0
   38.4213   44.6536   54.8708 N   0  0  0  0  0  0  0  0  0  8  0  0
   39.2552   44.1174   54.0014 N   0  0  0  0  0  0  0  0  0  9  0  0
   40.0109   43.1806   54.5911 C   0  0  0  0  0  0  0  0  0 10  0  0
   39.5975   43.1547   55.9140 C   0  0  0  0  0  0  0  0  0 11  0  0
   41.0421   42.3703   53.9662 C   0  0  0  0  0  0  0  0  0 12  0  0
   41.4848   41.3822   54.5970 O   0  0  0  0  0  0  0  0  0 13  0  0
   41.5667   42.6256   52.7110 O   0  0  0  0  0  0  0  0  0 14  0  0
   38.2960   42.1795   58.4988 C   0  0  0  0  0  0  0  0  0 15  0  0
  1  2  1  1
  2  3  1  0
  3  4  1  0
  4  5  2  0
  5  6  1  0
  2  6  2  0
  6  7  1  0
  7  8  2  0
  8  9  1  0
  9 10  1  0
 10 11  2  0
  7 11  1  0
 10 12  1  0
 12 13  2  0
 12 14  1  0
 15  5  1  1
M  END
>  <fitscore>  (40) 
-0.0494722

$$$$
