sQC_Substrate__STL420760_rank_0
     RDKit          3D

 20 21  0  0  0  0  0  0  0  0999 V2000
   40.1765   44.0254   55.3204 C   0  0  0  0  0  0  0  0  0  1  0  0
   38.9335   44.6970   54.8895 C   0  0  0  0  0  0  0  0  0  2  0  0
   38.8794   45.0070   53.5556 N   0  0  0  0  0  0  0  0  0  3  0  0
   37.8223   45.6121   53.0167 C   0  0  0  0  0  0  0  0  0  4  0  0
   37.7365   45.9408   51.6641 O   0  0  0  0  0  0  0  0  0  5  0  0
   36.7810   45.9303   53.7868 N   0  0  0  0  0  0  0  0  0  6  0  0
   36.7922   45.6474   55.0873 C   0  0  0  0  0  0  0  0  0  7  0  0
   35.8205   45.9400   55.8259 O   0  0  0  0  0  0  0  0  0  8  0  0
   37.8821   45.0122   55.6959 C   0  0  0  0  0  0  0  0  0  9  0  0
   37.8418   44.6694   57.4014 S   0  0  1  0  0  6  0  0  0 10  0  0
   37.8788   45.9544   58.1537 O   0  0  0  0  0  0  0  0  0 11  0  0
   36.4268   44.1264   57.6884 O   0  0  0  0  0  0  0  0  0 12  0  0
   38.9355   43.4972   57.8995 N   0  0  0  0  0  0  0  0  0 13  0  0
   39.4332   43.2081   59.1852 C   0  0  0  0  0  0  0  0  0 14  0  0
   38.9611   43.7873   60.3391 C   0  0  0  0  0  0  0  0  0 15  0  0
   39.4773   43.4535   61.5952 C   0  0  0  0  0  0  0  0  0 16  0  0
   40.4844   42.5255   61.7239 C   0  0  0  0  0  0  0  0  0 17  0  0
   40.9678   41.9358   60.5748 C   0  0  0  0  0  0  0  0  0 18  0  0
   40.4560   42.2679   59.3370 C   0  0  0  0  0  0  0  0  0 19  0  0
   40.9675   41.6560   58.2221 F   0  0  0  0  0  0  0  0  0 20  0  0
  1  2  1  1
  2  3  1  0
  3  4  2  0
  4  5  1  0
  4  6  1  0
  6  7  1  0
  7  8  2  0
  7  9  1  0
  2  9  2  0
  9 10  1  0
 10 11  2  0
 10 12  2  0
 10 13  1  1
 13 14  1  0
 14 15  2  0
 15 16  1  0
 16 17  2  0
 17 18  1  0
 18 19  2  0
 14 19  1  0
 19 20  1  0
M  END
>  <fitscore>  (1) 
0.566191

$$$$
sQC_Substrate__STL420760_rank_1
     RDKit          3D

 20 21  0  0  0  0  0  0  0  0999 V2000
   35.4610   46.2486   56.3599 C   0  0  0  0  0  0  0  0  0  1  0  0
   36.5570   45.6574   55.5655 C   0  0  0  0  0  0  0  0  0  2  0  0
   36.4716   45.8755   54.2152 N   0  0  0  0  0  0  0  0  0  3  0  0
   37.3867   45.4073   53.3681 C   0  0  0  0  0  0  0  0  0  4  0  0
   37.3286   45.6118   51.9898 O   0  0  0  0  0  0  0  0  0  5  0  0
   38.4197   44.7049   53.8354 N   0  0  0  0  0  0  0  0  0  6  0  0
   38.5410   44.4699   55.1397 C   0  0  0  0  0  0  0  0  0  7  0  0
   39.5069   43.8108   55.5958 O   0  0  0  0  0  0  0  0  0  8  0  0
   37.6029   44.9428   56.0661 C   0  0  0  0  0  0  0  0  0  9  0  0
   37.8119   44.6025   57.7597 S   0  0  1  0  0  6  0  0  0 10  0  0
   37.4777   45.8245   58.5431 O   0  0  0  0  0  0  0  0  0 11  0  0
   36.6851   43.6176   58.1335 O   0  0  0  0  0  0  0  0  0 12  0  0
   39.2686   43.8617   58.1439 N   0  0  0  0  0  0  0  0  0 13  0  0
   39.7304   43.3505   59.3726 C   0  0  0  0  0  0  0  0  0 14  0  0
   39.1614   43.6447   60.5889 C   0  0  0  0  0  0  0  0  0 15  0  0
   39.6467   43.0972   61.7807 C   0  0  0  0  0  0  0  0  0 16  0  0
   40.7199   42.2369   61.7803 C   0  0  0  0  0  0  0  0  0 17  0  0
   41.3009   41.9322   60.5672 C   0  0  0  0  0  0  0  0  0 18  0  0
   40.8193   42.4745   59.3932 C   0  0  0  0  0  0  0  0  0 19  0  0
   41.4285   42.1432   58.2108 F   0  0  0  0  0  0  0  0  0 20  0  0
  1  2  1  1
  2  3  1  0
  3  4  2  0
  4  5  1  0
  4  6  1  0
  6  7  1  0
  7  8  2  0
  7  9  1  0
  2  9  2  0
  9 10  1  0
 10 11  2  0
 10 12  2  0
 10 13  1  6
 13 14  1  0
 14 15  2  0
 15 16  1  0
 16 17  2  0
 17 18  1  0
 18 19  2  0
 14 19  1  0
 19 20  1  0
M  END
>  <fitscore>  (2) 
0.566127

$$$$
sQC_Substrate__STL420760_rank_2
     RDKit          3D

 20 21  0  0  0  0  0  0  0  0999 V2000
   40.3989   45.4386   55.4799 C   0  0  0  0  0  0  0  0  0  1  0  0
   38.9835   45.2704   55.0925 C   0  0  0  0  0  0  0  0  0  2  0  0
   38.7427   45.3439   53.7454 N   0  0  0  0  0  0  0  0  0  3  0  0
   37.5171   45.2090   53.2417 C   0  0  0  0  0  0  0  0  0  4  0  0
   37.2391   45.2786   51.8768 O   0  0  0  0  0  0  0  0  0  5  0  0
   36.4870   44.9962   54.0617 N   0  0  0  0  0  0  0  0  0  6  0  0
   36.6764   44.9180   55.3767 C   0  0  0  0  0  0  0  0  0  7  0  0
   35.7180   44.7181   56.1621 O   0  0  0  0  0  0  0  0  0  8  0  0
   37.9473   45.0538   55.9496 C   0  0  0  0  0  0  0  0  0  9  0  0
   38.1343   44.9448   57.6761 S   0  0  1  0  0  6  0  0  0 10  0  0
   38.4753   46.2924   58.2114 O   0  0  0  0  0  0  0  0  0 11  0  0
   36.7213   44.6832   58.2370 O   0  0  0  0  0  0  0  0  0 12  0  0
   39.1154   43.6829   58.1895 N   0  0  0  0  0  0  0  0  0 13  0  0
   40.2842   43.7041   58.9754 C   0  0  0  0  0  0  0  0  0 14  0  0
   40.8235   44.8460   59.5185 C   0  0  0  0  0  0  0  0  0 15  0  0
   41.9777   44.8123   60.3073 C   0  0  0  0  0  0  0  0  0 16  0  0
   42.6213   43.6257   60.5717 C   0  0  0  0  0  0  0  0  0 17  0  0
   42.0914   42.4717   60.0338 C   0  0  0  0  0  0  0  0  0 18  0  0
   40.9524   42.5089   59.2556 C   0  0  0  0  0  0  0  0  0 19  0  0
   40.4617   41.3366   58.7419 F   0  0  0  0  0  0  0  0  0 20  0  0
  1  2  1  1
  2  3  1  0
  3  4  2  0
  4  5  1  0
  4  6  1  0
  6  7  1  0
  7  8  2  0
  7  9  1  0
  2  9  2  0
  9 10  1  0
 10 11  2  0
 10 12  2  0
 10 13  1  6
 13 14  1  0
 14 15  2  0
 15 16  1  0
 16 17  2  0
 17 18  1  0
 18 19  2  0
 14 19  1  0
 19 20  1  0
M  END
>  <fitscore>  (3) 
0.495402

$$$$
sQC_Substrate__STL420760_rank_3
     RDKit          3D

 20 21  0  0  0  0  0  0  0  0999 V2000
   40.2244   45.6720   55.6612 C   0  0  0  0  0  0  0  0  0  1  0  0
   38.9243   45.2175   55.1275 C   0  0  0  0  0  0  0  0  0  2  0  0
   38.7893   45.3290   53.7683 N   0  0  0  0  0  0  0  0  0  3  0  0
   37.6753   44.9577   53.1395 C   0  0  0  0  0  0  0  0  0  4  0  0
   37.5066   45.0584   51.7588 O   0  0  0  0  0  0  0  0  0  5  0  0
   36.6557   44.4619   53.8419 N   0  0  0  0  0  0  0  0  0  6  0  0
   36.7448   44.3364   55.1638 C   0  0  0  0  0  0  0  0  0  7  0  0
   35.7946   43.8718   55.8396 O   0  0  0  0  0  0  0  0  0  8  0  0
   37.8965   44.7140   55.8659 C   0  0  0  0  0  0  0  0  0  9  0  0
   37.9551   44.5293   57.5952 S   0  0  1  0  0  6  0  0  0 10  0  0
   38.0927   45.8742   58.2206 O   0  0  0  0  0  0  0  0  0 11  0  0
   36.5416   44.0798   58.0188 O   0  0  0  0  0  0  0  0  0 12  0  0
   39.0318   43.3584   58.1317 N   0  0  0  0  0  0  0  0  0 13  0  0
   39.9222   43.3761   59.2231 C   0  0  0  0  0  0  0  0  0 14  0  0
   39.7526   44.1602   60.3395 C   0  0  0  0  0  0  0  0  0 15  0  0
   40.6569   44.1290   61.4057 C   0  0  0  0  0  0  0  0  0 16  0  0
   41.7585   43.3058   61.3770 C   0  0  0  0  0  0  0  0  0 17  0  0
   41.9416   42.5130   60.2635 C   0  0  0  0  0  0  0  0  0 18  0  0
   41.0470   42.5467   59.2132 C   0  0  0  0  0  0  0  0  0 19  0  0
   41.2695   41.7411   58.1267 F   0  0  0  0  0  0  0  0  0 20  0  0
  1  2  1  1
  2  3  1  0
  3  4  2  0
  4  5  1  0
  4  6  1  0
  6  7  1  0
  7  8  2  0
  7  9  1  0
  2  9  2  0
  9 10  1  0
 10 11  2  0
 10 12  2  0
 10 13  1  6
 13 14  1  0
 14 15  2  0
 15 16  1  0
 16 17  2  0
 17 18  1  0
 18 19  2  0
 14 19  1  0
 19 20  1  0
M  END
>  <fitscore>  (4) 
0.485154

$$$$
sQC_Substrate__STL420760_rank_4
     RDKit          3D

 20 21  0  0  0  0  0  0  0  0999 V2000
   40.1028   45.4373   55.2650 C   0  0  0  0  0  0  0  0  0  1  0  0
   38.6546   45.2457   55.0463 C   0  0  0  0  0  0  0  0  0  2  0  0
   38.2365   45.4415   53.7559 N   0  0  0  0  0  0  0  0  0  3  0  0
   36.9600   45.3030   53.4018 C   0  0  0  0  0  0  0  0  0  4  0  0
   36.5028   45.4950   52.0982 O   0  0  0  0  0  0  0  0  0  5  0  0
   36.0538   44.9646   54.3200 N   0  0  0  0  0  0  0  0  0  6  0  0
   36.4170   44.7650   55.5847 C   0  0  0  0  0  0  0  0  0  7  0  0
   35.5770   44.4462   56.4611 O   0  0  0  0  0  0  0  0  0  8  0  0
   37.7474   44.8996   56.0015 C   0  0  0  0  0  0  0  0  0  9  0  0
   38.1633   44.6287   57.6692 S   0  0  1  0  0  6  0  0  0 10  0  0
   38.6211   45.9134   58.2682 O   0  0  0  0  0  0  0  0  0 11  0  0
   36.8313   44.3491   58.3953 O   0  0  0  0  0  0  0  0  0 12  0  0
   39.1600   43.3030   57.9292 N   0  0  0  0  0  0  0  0  0 13  0  0
   39.7221   42.8106   59.1233 C   0  0  0  0  0  0  0  0  0 14  0  0
   39.0701   42.8050   60.3335 C   0  0  0  0  0  0  0  0  0 15  0  0
   39.6656   42.2883   61.4885 C   0  0  0  0  0  0  0  0  0 16  0  0
   40.9359   41.7618   61.4563 C   0  0  0  0  0  0  0  0  0 17  0  0
   41.6023   41.7603   60.2489 C   0  0  0  0  0  0  0  0  0 18  0  0
   41.0114   42.2712   59.1113 C   0  0  0  0  0  0  0  0  0 19  0  0
   41.7117   42.2486   57.9331 F   0  0  0  0  0  0  0  0  0 20  0  0
  1  2  1  1
  2  3  1  0
  3  4  2  0
  4  5  1  0
  4  6  1  0
  6  7  1  0
  7  8  2  0
  7  9  1  0
  2  9  2  0
  9 10  1  0
 10 11  2  0
 10 12  2  0
 10 13  1  6
 13 14  1  0
 14 15  2  0
 15 16  1  0
 16 17  2  0
 17 18  1  0
 18 19  2  0
 14 19  1  0
 19 20  1  0
M  END
>  <fitscore>  (5) 
0.454351

$$$$
sQC_Substrate__STL420760_rank_5
     RDKit          3D

 20 21  0  0  0  0  0  0  0  0999 V2000
   39.8707   43.8559   55.0355 C   0  0  0  0  0  0  0  0  0  1  0  0
   38.5931   44.5968   55.0088 C   0  0  0  0  0  0  0  0  0  2  0  0
   38.2744   45.1512   53.7966 N   0  0  0  0  0  0  0  0  0  3  0  0
   37.1533   45.8469   53.6146 C   0  0  0  0  0  0  0  0  0  4  0  0
   36.8005   46.4232   52.3945 O   0  0  0  0  0  0  0  0  0  5  0  0
   36.3092   46.0157   54.6332 N   0  0  0  0  0  0  0  0  0  6  0  0
   36.5801   45.4942   55.8274 C   0  0  0  0  0  0  0  0  0  7  0  0
   35.7964   45.6437   56.7964 O   0  0  0  0  0  0  0  0  0  8  0  0
   37.7466   44.7559   56.0639 C   0  0  0  0  0  0  0  0  0  9  0  0
   38.0492   44.0997   57.6468 S   0  0  1  0  0  6  0  0  0 10  0  0
   37.9599   45.1971   58.6501 O   0  0  0  0  0  0  0  0  0 11  0  0
   36.8302   43.2135   57.9754 O   0  0  0  0  0  0  0  0  0 12  0  0
   39.4135   43.1264   57.7452 N   0  0  0  0  0  0  0  0  0 13  0  0
   40.3163   42.9342   58.8093 C   0  0  0  0  0  0  0  0  0 14  0  0
   40.3751   43.7403   59.9213 C   0  0  0  0  0  0  0  0  0 15  0  0
   41.2788   43.4971   60.9603 C   0  0  0  0  0  0  0  0  0 16  0  0
   42.1494   42.4334   60.9082 C   0  0  0  0  0  0  0  0  0 17  0  0
   42.1017   41.6157   59.7988 C   0  0  0  0  0  0  0  0  0 18  0  0
   41.2085   41.8590   58.7753 C   0  0  0  0  0  0  0  0  0 19  0  0
   41.1968   41.0193   57.6918 F   0  0  0  0  0  0  0  0  0 20  0  0
  1  2  1  1
  2  3  1  0
  3  4  2  0
  4  5  1  0
  4  6  1  0
  6  7  1  0
  7  8  2  0
  7  9  1  0
  2  9  2  0
  9 10  1  0
 10 11  2  0
 10 12  2  0
 10 13  1  6
 13 14  1  0
 14 15  2  0
 15 16  1  0
 16 17  2  0
 17 18  1  0
 18 19  2  0
 14 19  1  0
 19 20  1  0
M  END
>  <fitscore>  (6) 
0.427858

$$$$
sQC_Substrate__STL420760_rank_6
     RDKit          3D

 20 21  0  0  0  0  0  0  0  0999 V2000
   39.5101   43.4762   54.9172 C   0  0  0  0  0  0  0  0  0  1  0  0
   38.1699   44.0957   54.8717 C   0  0  0  0  0  0  0  0  0  2  0  0
   37.7555   44.4798   53.6232 N   0  0  0  0  0  0  0  0  0  3  0  0
   36.5692   45.0507   53.4208 C   0  0  0  0  0  0  0  0  0  4  0  0
   36.1184   45.4527   52.1637 O   0  0  0  0  0  0  0  0  0  5  0  0
   35.7529   45.2595   54.4547 N   0  0  0  0  0  0  0  0  0  6  0  0
   36.1161   44.9017   55.6840 C   0  0  0  0  0  0  0  0  0  7  0  0
   35.3599   45.0911   56.6677 O   0  0  0  0  0  0  0  0  0  8  0  0
   37.3536   44.2988   55.9429 C   0  0  0  0  0  0  0  0  0  9  0  0
   37.7757   43.8544   57.5714 S   0  0  1  0  0  6  0  0  0 10  0  0
   37.2830   44.9072   58.5029 O   0  0  0  0  0  0  0  0  0 11  0  0
   36.8989   42.6326   57.9152 O   0  0  0  0  0  0  0  0  0 12  0  0
   39.3767   43.3904   57.7712 N   0  0  0  0  0  0  0  0  0 13  0  0
   40.4747   44.1136   58.2766 C   0  0  0  0  0  0  0  0  0 14  0  0
   40.5241   45.4857   58.3457 C   0  0  0  0  0  0  0  0  0 15  0  0
   41.6317   46.1572   58.8728 C   0  0  0  0  0  0  0  0  0 16  0  0
   42.7216   45.4643   59.3459 C   0  0  0  0  0  0  0  0  0 17  0  0
   42.6862   44.0871   59.2835 C   0  0  0  0  0  0  0  0  0 18  0  0
   41.5915   43.4279   58.7625 C   0  0  0  0  0  0  0  0  0 19  0  0
   41.6006   42.0579   58.7206 F   0  0  0  0  0  0  0  0  0 20  0  0
  1  2  1  1
  2  3  1  0
  3  4  2  0
  4  5  1  0
  4  6  1  0
  6  7  1  0
  7  8  2  0
  7  9  1  0
  2  9  2  0
  9 10  1  0
 10 11  2  0
 10 12  2  0
 10 13  1  6
 13 14  1  0
 14 15  2  0
 15 16  1  0
 16 17  2  0
 17 18  1  0
 18 19  2  0
 14 19  1  0
 19 20  1  0
M  END
>  <fitscore>  (7) 
0.410011

$$$$
sQC_Substrate__STL420760_rank_7
     RDKit          3D

 20 21  0  0  0  0  0  0  0  0999 V2000
   38.9483   46.9258   56.5715 C   0  0  0  0  0  0  0  0  0  1  0  0
   38.0377   46.0594   55.7957 C   0  0  0  0  0  0  0  0  0  2  0  0
   37.8379   46.4505   54.4975 N   0  0  0  0  0  0  0  0  0  3  0  0
   37.0452   45.7691   53.6720 C   0  0  0  0  0  0  0  0  0  4  0  0
   36.8212   46.1407   52.3465 O   0  0  0  0  0  0  0  0  0  5  0  0
   36.4229   44.6737   54.1096 N   0  0  0  0  0  0  0  0  0  6  0  0
   36.5892   44.2587   55.3632 C   0  0  0  0  0  0  0  0  0  7  0  0
   36.0111   43.2300   55.7909 O   0  0  0  0  0  0  0  0  0  8  0  0
   37.4129   44.9439   56.2653 C   0  0  0  0  0  0  0  0  0  9  0  0
   37.5905   44.3558   57.8933 S   0  0  1  0  0  6  0  0  0 10  0  0
   37.5258   45.5092   58.8337 O   0  0  0  0  0  0  0  0  0 11  0  0
   36.2990   43.5700   58.2003 O   0  0  0  0  0  0  0  0  0 12  0  0
   38.8788   43.3023   58.1138 N   0  0  0  0  0  0  0  0  0 13  0  0
   39.8626   43.2701   59.1214 C   0  0  0  0  0  0  0  0  0 14  0  0
   39.7741   43.9668   60.3032 C   0  0  0  0  0  0  0  0  0 15  0  0
   40.7708   43.8880   61.2809 C   0  0  0  0  0  0  0  0  0 16  0  0
   41.8857   43.1041   61.0952 C   0  0  0  0  0  0  0  0  0 17  0  0
   41.9881   42.3991   59.9144 C   0  0  0  0  0  0  0  0  0 18  0  0
   41.0025   42.4794   58.9518 C   0  0  0  0  0  0  0  0  0 19  0  0
   41.1469   41.7608   57.7935 F   0  0  0  0  0  0  0  0  0 20  0  0
  1  2  1  1
  2  3  1  0
  3  4  2  0
  4  5  1  0
  4  6  1  0
  6  7  1  0
  7  8  2  0
  7  9  1  0
  2  9  2  0
  9 10  1  0
 10 11  2  0
 10 12  2  0
 10 13  1  6
 13 14  1  0
 14 15  2  0
 15 16  1  0
 16 17  2  0
 17 18  1  0
 18 19  2  0
 14 19  1  0
 19 20  1  0
M  END
>  <fitscore>  (8) 
0.403995

$$$$
sQC_Substrate__STL420760_rank_8
     RDKit          3D

 20 21  0  0  0  0  0  0  0  0999 V2000
   36.1123   43.4393   55.6979 C   0  0  0  0  0  0  0  0  0  1  0  0
   37.1275   44.2037   54.9450 C   0  0  0  0  0  0  0  0  0  2  0  0
   36.9282   44.2459   53.5898 N   0  0  0  0  0  0  0  0  0  3  0  0
   37.7574   44.8987   52.7772 C   0  0  0  0  0  0  0  0  0  4  0  0
   37.5826   44.9605   51.3949 O   0  0  0  0  0  0  0  0  0  5  0  0
   38.8151   45.5329   53.2850 N   0  0  0  0  0  0  0  0  0  6  0  0
   39.0459   45.5172   54.5956 C   0  0  0  0  0  0  0  0  0  7  0  0
   40.0365   46.1088   55.0897 O   0  0  0  0  0  0  0  0  0  8  0  0
   38.2007   44.8438   55.4868 C   0  0  0  0  0  0  0  0  0  9  0  0
   38.5539   44.8556   57.1906 S   0  0  1  0  0  6  0  0  0 10  0  0
   39.3175   46.0921   57.5174 O   0  0  0  0  0  0  0  0  0 11  0  0
   37.2011   45.0717   57.8995 O   0  0  0  0  0  0  0  0  0 12  0  0
   39.1990   43.4202   57.7753 N   0  0  0  0  0  0  0  0  0 13  0  0
   39.6468   43.0870   59.0686 C   0  0  0  0  0  0  0  0  0 14  0  0
   39.0539   43.5346   60.2254 C   0  0  0  0  0  0  0  0  0 15  0  0
   39.5263   43.1608   61.4874 C   0  0  0  0  0  0  0  0  0 16  0  0
   40.6103   42.3244   61.6194 C   0  0  0  0  0  0  0  0  0 17  0  0
   41.2152   41.8670   60.4676 C   0  0  0  0  0  0  0  0  0 18  0  0
   40.7463   42.2382   59.2239 C   0  0  0  0  0  0  0  0  0 19  0  0
   41.3792   41.7589   58.1065 F   0  0  0  0  0  0  0  0  0 20  0  0
  1  2  1  1
  2  3  1  0
  3  4  2  0
  4  5  1  0
  4  6  1  0
  6  7  1  0
  7  8  2  0
  7  9  1  0
  2  9  2  0
  9 10  1  0
 10 11  2  0
 10 12  2  0
 10 13  1  1
 13 14  1  0
 14 15  2  0
 15 16  1  0
 16 17  2  0
 17 18  1  0
 18 19  2  0
 14 19  1  0
 19 20  1  0
M  END
>  <fitscore>  (9) 
0.397215

$$$$
sQC_Substrate__STL420760_rank_9
     RDKit          3D

 20 21  0  0  0  0  0  0  0  0999 V2000
   36.0825   45.8576   56.2107 C   0  0  0  0  0  0  0  0  0  1  0  0
   37.1263   45.3398   55.3030 C   0  0  0  0  0  0  0  0  0  2  0  0
   36.7502   45.2438   53.9886 N   0  0  0  0  0  0  0  0  0  3  0  0
   37.5826   44.7966   53.0499 C   0  0  0  0  0  0  0  0  0  4  0  0
   37.2306   44.6869   51.7049 O   0  0  0  0  0  0  0  0  0  5  0  0
   38.8197   44.4289   53.3864 N   0  0  0  0  0  0  0  0  0  6  0  0
   39.2259   44.5062   54.6514 C   0  0  0  0  0  0  0  0  0  7  0  0
   40.3866   44.1643   54.9849 O   0  0  0  0  0  0  0  0  0  8  0  0
   38.3846   44.9702   55.6706 C   0  0  0  0  0  0  0  0  0  9  0  0
   38.9696   45.0471   57.3076 S   0  0  1  0  0  6  0  0  0 10  0  0
   40.2784   45.7583   57.3203 O   0  0  0  0  0  0  0  0  0 11  0  0
   38.0265   46.0186   58.0466 O   0  0  0  0  0  0  0  0  0 12  0  0
   38.9226   43.5846   58.1306 N   0  0  0  0  0  0  0  0  0 13  0  0
   39.8265   43.0384   59.0628 C   0  0  0  0  0  0  0  0  0 14  0  0
   41.0777   43.5514   59.3102 C   0  0  0  0  0  0  0  0  0 15  0  0
   41.9324   42.9825   60.2595 C   0  0  0  0  0  0  0  0  0 16  0  0
   41.5499   41.8797   60.9873 C   0  0  0  0  0  0  0  0  0 17  0  0
   40.2970   41.3542   60.7501 C   0  0  0  0  0  0  0  0  0 18  0  0
   39.4564   41.9184   59.8123 C   0  0  0  0  0  0  0  0  0 19  0  0
   38.2200   41.3621   59.6103 F   0  0  0  0  0  0  0  0  0 20  0  0
  1  2  1  1
  2  3  1  0
  3  4  2  0
  4  5  1  0
  4  6  1  0
  6  7  1  0
  7  8  2  0
  7  9  1  0
  2  9  2  0
  9 10  1  0
 10 11  2  0
 10 12  2  0
 10 13  1  1
 13 14  1  0
 14 15  2  0
 15 16  1  0
 16 17  2  0
 17 18  1  0
 18 19  2  0
 14 19  1  0
 19 20  1  0
M  END
>  <fitscore>  (10) 
0.396668

$$$$
sQC_Substrate__STL420760_rank_10
     RDKit          3D

 20 21  0  0  0  0  0  0  0  0999 V2000
   37.2169   45.6595   57.0221 C   0  0  0  0  0  0  0  0  0  1  0  0
   37.5507   45.0846   55.7030 C   0  0  0  0  0  0  0  0  0  2  0  0
   36.6967   45.4344   54.6899 N   0  0  0  0  0  0  0  0  0  3  0  0
   36.8679   44.9971   53.4435 C   0  0  0  0  0  0  0  0  0  4  0  0
   36.0174   45.3345   52.3910 O   0  0  0  0  0  0  0  0  0  5  0  0
   37.8959   44.1957   53.1612 N   0  0  0  0  0  0  0  0  0  6  0  0
   38.7492   43.8314   54.1154 C   0  0  0  0  0  0  0  0  0  7  0  0
   39.7217   43.0778   53.8666 O   0  0  0  0  0  0  0  0  0  8  0  0
   38.6076   44.2671   55.4390 C   0  0  0  0  0  0  0  0  0  9  0  0
   39.7529   43.7563   56.6453 S   0  0  1  0  0  6  0  0  0 10  0  0
   40.8745   43.0412   55.9749 O   0  0  0  0  0  0  0  0  0 11  0  0
   40.4141   45.0468   57.1714 O   0  0  0  0  0  0  0  0  0 12  0  0
   39.0692   42.9737   57.9638 N   0  0  0  0  0  0  0  0  0 13  0  0
   39.2589   43.1858   59.3434 C   0  0  0  0  0  0  0  0  0 14  0  0
   38.4719   44.0139   60.1081 C   0  0  0  0  0  0  0  0  0 15  0  0
   38.6904   44.1777   61.4796 C   0  0  0  0  0  0  0  0  0 16  0  0
   39.7089   43.5107   62.1198 C   0  0  0  0  0  0  0  0  0 17  0  0
   40.5065   42.6760   61.3655 C   0  0  0  0  0  0  0  0  0 18  0  0
   40.2879   42.5171   60.0122 C   0  0  0  0  0  0  0  0  0 19  0  0
   41.1061   41.6768   59.3026 F   0  0  0  0  0  0  0  0  0 20  0  0
  1  2  1  1
  2  3  1  0
  3  4  2  0
  4  5  1  0
  4  6  1  0
  6  7  1  0
  7  8  2  0
  7  9  1  0
  2  9  2  0
  9 10  1  0
 10 11  2  0
 10 12  2  0
 10 13  1  1
 13 14  1  0
 14 15  2  0
 15 16  1  0
 16 17  2  0
 17 18  1  0
 18 19  2  0
 14 19  1  0
 19 20  1  0
M  END
>  <fitscore>  (11) 
0.39113

$$$$
sQC_Substrate__STL420760_rank_11
     RDKit          3D

 20 21  0  0  0  0  0  0  0  0999 V2000
   38.8252   47.1714   55.5871 C   0  0  0  0  0  0  0  0  0  1  0  0
   38.1323   45.8794   55.4077 C   0  0  0  0  0  0  0  0  0  2  0  0
   37.6988   45.6310   54.1316 N   0  0  0  0  0  0  0  0  0  3  0  0
   37.0594   44.5069   53.8125 C   0  0  0  0  0  0  0  0  0  4  0  0
   36.6059   44.2244   52.5243 O   0  0  0  0  0  0  0  0  0  5  0  0
   36.8287   43.5898   54.7529 N   0  0  0  0  0  0  0  0  0  6  0  0
   37.2327   43.7909   56.0050 C   0  0  0  0  0  0  0  0  0  7  0  0
   37.0236   42.9381   56.9018 O   0  0  0  0  0  0  0  0  0  8  0  0
   37.9081   44.9576   56.3851 C   0  0  0  0  0  0  0  0  0  9  0  0
   38.4105   45.1670   58.0378 S   0  0  1  0  0  6  0  0  0 10  0  0
   39.1605   46.4486   58.1564 O   0  0  0  0  0  0  0  0  0 11  0  0
   37.1197   45.4315   58.8399 O   0  0  0  0  0  0  0  0  0 12  0  0
   39.1501   43.8202   58.7141 N   0  0  0  0  0  0  0  0  0 13  0  0
   40.2030   43.7351   59.6459 C   0  0  0  0  0  0  0  0  0 14  0  0
   40.0585   43.9752   60.9917 C   0  0  0  0  0  0  0  0  0 15  0  0
   41.1326   43.8605   61.8798 C   0  0  0  0  0  0  0  0  0 16  0  0
   42.3837   43.5000   61.4364 C   0  0  0  0  0  0  0  0  0 17  0  0
   42.5438   43.2556   60.0886 C   0  0  0  0  0  0  0  0  0 18  0  0
   41.4815   43.3700   59.2152 C   0  0  0  0  0  0  0  0  0 19  0  0
   41.6877   43.1173   57.8838 F   0  0  0  0  0  0  0  0  0 20  0  0
  1  2  1  1
  2  3  1  0
  3  4  2  0
  4  5  1  0
  4  6  1  0
  6  7  1  0
  7  8  2  0
  7  9  1  0
  2  9  2  0
  9 10  1  0
 10 11  2  0
 10 12  2  0
 10 13  1  1
 13 14  1  0
 14 15  2  0
 15 16  1  0
 16 17  2  0
 17 18  1  0
 18 19  2  0
 14 19  1  0
 19 20  1  0
M  END
>  <fitscore>  (12) 
0.390591

$$$$
sQC_Substrate__STL420760_rank_12
     RDKit          3D

 20 21  0  0  0  0  0  0  0  0999 V2000
   36.2356   46.5967   56.7690 C   0  0  0  0  0  0  0  0  0  1  0  0
   36.9929   45.8870   55.7181 C   0  0  0  0  0  0  0  0  0  2  0  0
   36.9405   46.4688   54.4784 N   0  0  0  0  0  0  0  0  0  3  0  0
   37.5748   45.9475   53.4296 C   0  0  0  0  0  0  0  0  0  4  0  0
   37.5413   46.5149   52.1560 O   0  0  0  0  0  0  0  0  0  5  0  0
   38.2841   44.8278   53.5777 N   0  0  0  0  0  0  0  0  0  6  0  0
   38.3615   44.2301   54.7643 C   0  0  0  0  0  0  0  0  0  7  0  0
   39.0246   43.1760   54.9207 O   0  0  0  0  0  0  0  0  0  8  0  0
   37.7109   44.7430   55.8938 C   0  0  0  0  0  0  0  0  0  9  0  0
   37.8458   43.9171   57.4194 S   0  0  1  0  0  6  0  0  0 10  0  0
   37.2710   44.7802   58.4888 O   0  0  0  0  0  0  0  0  0 11  0  0
   36.8598   42.7331   57.3458 O   0  0  0  0  0  0  0  0  0 12  0  0
   39.3672   43.2796   57.7312 N   0  0  0  0  0  0  0  0  0 13  0  0
   40.0869   43.1985   58.9393 C   0  0  0  0  0  0  0  0  0 14  0  0
   40.9110   44.1930   59.4102 C   0  0  0  0  0  0  0  0  0 15  0  0
   41.5913   44.0716   60.6260 C   0  0  0  0  0  0  0  0  0 16  0  0
   41.4600   42.9438   61.4023 C   0  0  0  0  0  0  0  0  0 17  0  0
   40.6362   41.9377   60.9428 C   0  0  0  0  0  0  0  0  0 18  0  0
   39.9666   42.0610   59.7424 C   0  0  0  0  0  0  0  0  0 19  0  0
   39.1584   41.0353   59.3256 F   0  0  0  0  0  0  0  0  0 20  0  0
  1  2  1  1
  2  3  1  0
  3  4  2  0
  4  5  1  0
  4  6  1  0
  6  7  1  0
  7  8  2  0
  7  9  1  0
  2  9  2  0
  9 10  1  0
 10 11  2  0
 10 12  2  0
 10 13  1  1
 13 14  1  0
 14 15  2  0
 15 16  1  0
 16 17  2  0
 17 18  1  0
 18 19  2  0
 14 19  1  0
 19 20  1  0
M  END
>  <fitscore>  (13) 
0.388526

$$$$
sQC_Substrate__STL420760_rank_13
     RDKit          3D

 20 21  0  0  0  0  0  0  0  0999 V2000
   35.6821   45.7575   55.5092 C   0  0  0  0  0  0  0  0  0  1  0  0
   36.9643   45.3358   54.9091 C   0  0  0  0  0  0  0  0  0  2  0  0
   37.1805   45.7908   53.6346 N   0  0  0  0  0  0  0  0  0  3  0  0
   38.2920   45.4966   52.9622 C   0  0  0  0  0  0  0  0  0  4  0  0
   38.5420   45.9437   51.6650 O   0  0  0  0  0  0  0  0  0  5  0  0
   39.2281   44.7386   53.5348 N   0  0  0  0  0  0  0  0  0  6  0  0
   39.0583   44.2758   54.7710 C   0  0  0  0  0  0  0  0  0  7  0  0
   39.9294   43.5614   55.3245 O   0  0  0  0  0  0  0  0  0  8  0  0
   37.9059   44.5600   55.5147 C   0  0  0  0  0  0  0  0  0  9  0  0
   37.7376   43.9254   57.1261 S   0  0  1  0  0  6  0  0  0 10  0  0
   36.7783   44.7770   57.8833 O   0  0  0  0  0  0  0  0  0 11  0  0
   36.9864   42.5866   56.9750 O   0  0  0  0  0  0  0  0  0 12  0  0
   39.1918   43.5962   57.8975 N   0  0  0  0  0  0  0  0  0 13  0  0
   39.5964   43.8577   59.2212 C   0  0  0  0  0  0  0  0  0 14  0  0
   39.4434   45.0732   59.8448 C   0  0  0  0  0  0  0  0  0 15  0  0
   39.8461   45.2779   61.1683 C   0  0  0  0  0  0  0  0  0 16  0  0
   40.4146   44.2624   61.9014 C   0  0  0  0  0  0  0  0  0 17  0  0
   40.5741   43.0370   61.2890 C   0  0  0  0  0  0  0  0  0 18  0  0
   40.1756   42.8389   59.9828 C   0  0  0  0  0  0  0  0  0 19  0  0
   40.3538   41.6039   59.4153 F   0  0  0  0  0  0  0  0  0 20  0  0
  1  2  1  1
  2  3  1  0
  3  4  2  0
  4  5  1  0
  4  6  1  0
  6  7  1  0
  7  8  2  0
  7  9  1  0
  2  9  2  0
  9 10  1  0
 10 11  2  0
 10 12  2  0
 10 13  1  1
 13 14  1  0
 14 15  2  0
 15 16  1  0
 16 17  2  0
 17 18  1  0
 18 19  2  0
 14 19  1  0
 19 20  1  0
M  END
>  <fitscore>  (14) 
0.385643

$$$$
sQC_Substrate__STL420760_rank_14
     RDKit          3D

 20 21  0  0  0  0  0  0  0  0999 V2000
   39.8864   45.5021   54.8792 C   0  0  0  0  0  0  0  0  0  1  0  0
   38.4608   45.1280   54.9773 C   0  0  0  0  0  0  0  0  0  2  0  0
   37.7803   45.1365   53.7878 N   0  0  0  0  0  0  0  0  0  3  0  0
   36.4887   44.8195   53.7144 C   0  0  0  0  0  0  0  0  0  4  0  0
   35.7681   44.8185   52.5203 O   0  0  0  0  0  0  0  0  0  5  0  0
   35.8283   44.4827   54.8231 N   0  0  0  0  0  0  0  0  0  6  0  0
   36.4510   44.4616   55.9991 C   0  0  0  0  0  0  0  0  0  7  0  0
   35.8443   44.1469   57.0519 O   0  0  0  0  0  0  0  0  0  8  0  0
   37.8076   44.7874   56.1229 C   0  0  0  0  0  0  0  0  0  9  0  0
   38.5684   44.7448   57.6872 S   0  0  1  0  0  6  0  0  0 10  0  0
   39.5331   45.8755   57.7866 O   0  0  0  0  0  0  0  0  0 11  0  0
   37.4685   45.1219   58.7008 O   0  0  0  0  0  0  0  0  0 12  0  0
   39.1587   43.2371   58.1309 N   0  0  0  0  0  0  0  0  0 13  0  0
   39.8249   42.8328   59.3042 C   0  0  0  0  0  0  0  0  0 14  0  0
   39.2311   42.7740   60.5427 C   0  0  0  0  0  0  0  0  0 15  0  0
   39.9316   42.3486   61.6759 C   0  0  0  0  0  0  0  0  0 16  0  0
   41.2512   41.9698   61.5928 C   0  0  0  0  0  0  0  0  0 17  0  0
   41.8602   42.0232   60.3566 C   0  0  0  0  0  0  0  0  0 18  0  0
   41.1658   42.4436   59.2406 C   0  0  0  0  0  0  0  0  0 19  0  0
   41.8122   42.4805   58.0324 F   0  0  0  0  0  0  0  0  0 20  0  0
  1  2  1  1
  2  3  1  0
  3  4  2  0
  4  5  1  0
  4  6  1  0
  6  7  1  0
  7  8  2  0
  7  9  1  0
  2  9  2  0
  9 10  1  0
 10 11  2  0
 10 12  2  0
 10 13  1  1
 13 14  1  0
 14 15  2  0
 15 16  1  0
 16 17  2  0
 17 18  1  0
 18 19  2  0
 14 19  1  0
 19 20  1  0
M  END
>  <fitscore>  (15) 
0.356034

$$$$
sQC_Substrate__STL420760_rank_15
     RDKit          3D

 20 21  0  0  0  0  0  0  0  0999 V2000
   40.3210   46.2581   54.9985 C   0  0  0  0  0  0  0  0  0  1  0  0
   39.1201   45.4141   54.8332 C   0  0  0  0  0  0  0  0  0  2  0  0
   38.5905   45.4078   53.5692 N   0  0  0  0  0  0  0  0  0  3  0  0
   37.5091   44.6927   53.2636 C   0  0  0  0  0  0  0  0  0  4  0  0
   36.9461   44.6650   51.9879 O   0  0  0  0  0  0  0  0  0  5  0  0
   36.9163   43.9582   54.2058 N   0  0  0  0  0  0  0  0  0  6  0  0
   37.3978   43.9358   55.4463 C   0  0  0  0  0  0  0  0  0  7  0  0
   36.8519   43.2500   56.3446 O   0  0  0  0  0  0  0  0  0  8  0  0
   38.5319   44.6719   55.8121 C   0  0  0  0  0  0  0  0  0  9  0  0
   39.1149   44.6059   57.4502 S   0  0  1  0  0  6  0  0  0 10  0  0
   39.9775   45.7934   57.7045 O   0  0  0  0  0  0  0  0  0 11  0  0
   37.8844   44.8584   58.3456 O   0  0  0  0  0  0  0  0  0 12  0  0
   39.7605   43.1222   57.8978 N   0  0  0  0  0  0  0  0  0 13  0  0
   40.8138   42.8208   58.7831 C   0  0  0  0  0  0  0  0  0 14  0  0
   42.1011   43.2777   58.6285 C   0  0  0  0  0  0  0  0  0 15  0  0
   43.1090   42.9642   59.5458 C   0  0  0  0  0  0  0  0  0 16  0  0
   42.8477   42.1810   60.6459 C   0  0  0  0  0  0  0  0  0 17  0  0
   41.5605   41.7156   60.8144 C   0  0  0  0  0  0  0  0  0 18  0  0
   40.5686   42.0269   59.9069 C   0  0  0  0  0  0  0  0  0 19  0  0
   39.3035   41.5419   60.1151 F   0  0  0  0  0  0  0  0  0 20  0  0
  1  2  1  1
  2  3  1  0
  3  4  2  0
  4  5  1  0
  4  6  1  0
  6  7  1  0
  7  8  2  0
  7  9  1  0
  2  9  2  0
  9 10  1  0
 10 11  2  0
 10 12  2  0
 10 13  1  1
 13 14  1  0
 14 15  2  0
 15 16  1  0
 16 17  2  0
 17 18  1  0
 18 19  2  0
 14 19  1  0
 19 20  1  0
M  END
>  <fitscore>  (16) 
0.355883

$$$$
sQC_Substrate__STL420760_rank_16
     RDKit          3D

 20 21  0  0  0  0  0  0  0  0999 V2000
   39.8418   45.3978   55.6769 C   0  0  0  0  0  0  0  0  0  1  0  0
   38.3746   45.3216   55.5244 C   0  0  0  0  0  0  0  0  0  2  0  0
   37.8925   45.8162   54.3407 N   0  0  0  0  0  0  0  0  0  3  0  0
   36.5914   45.8145   54.0559 C   0  0  0  0  0  0  0  0  0  4  0  0
   36.0693   46.3100   52.8613 O   0  0  0  0  0  0  0  0  0  5  0  0
   35.7235   45.3201   54.9397 N   0  0  0  0  0  0  0  0  0  6  0  0
   36.1491   44.8298   56.1015 C   0  0  0  0  0  0  0  0  0  7  0  0
   35.3457   44.3609   56.9441 O   0  0  0  0  0  0  0  0  0  8  0  0
   37.5075   44.8116   56.4426 C   0  0  0  0  0  0  0  0  0  9  0  0
   38.0055   44.1601   57.9773 S   0  0  1  0  0  6  0  0  0 10  0  0
   38.0737   45.2661   58.9727 O   0  0  0  0  0  0  0  0  0 11  0  0
   36.8233   43.3028   58.4744 O   0  0  0  0  0  0  0  0  0 12  0  0
   39.3504   43.1582   57.9022 N   0  0  0  0  0  0  0  0  0 13  0  0
   40.5033   43.1246   58.7108 C   0  0  0  0  0  0  0  0  0 14  0  0
   40.6327   43.8156   59.8922 C   0  0  0  0  0  0  0  0  0 15  0  0
   41.7929   43.7356   60.6689 C   0  0  0  0  0  0  0  0  0 16  0  0
   42.8562   42.9562   60.2767 C   0  0  0  0  0  0  0  0  0 17  0  0
   42.7406   42.2569   59.0937 C   0  0  0  0  0  0  0  0  0 18  0  0
   41.5942   42.3384   58.3299 C   0  0  0  0  0  0  0  0  0 19  0  0
   41.5241   41.6255   57.1611 F   0  0  0  0  0  0  0  0  0 20  0  0
  1  2  1  1
  2  3  1  0
  3  4  2  0
  4  5  1  0
  4  6  1  0
  6  7  1  0
  7  8  2  0
  7  9  1  0
  2  9  2  0
  9 10  1  0
 10 11  2  0
 10 12  2  0
 10 13  1  6
 13 14  1  0
 14 15  2  0
 15 16  1  0
 16 17  2  0
 17 18  1  0
 18 19  2  0
 14 19  1  0
 19 20  1  0
M  END
>  <fitscore>  (17) 
0.353545

$$$$
sQC_Substrate__STL420760_rank_17
     RDKit          3D

 20 21  0  0  0  0  0  0  0  0999 V2000
   36.0654   45.9441   57.1528 C   0  0  0  0  0  0  0  0  0  1  0  0
   36.7753   45.6335   55.8953 C   0  0  0  0  0  0  0  0  0  2  0  0
   36.0746   45.9198   54.7528 N   0  0  0  0  0  0  0  0  0  3  0  0
   36.5829   45.6975   53.5419 C   0  0  0  0  0  0  0  0  0  4  0  0
   35.8959   45.9777   52.3609 O   0  0  0  0  0  0  0  0  0  5  0  0
   37.8074   45.1820   53.4252 N   0  0  0  0  0  0  0  0  0  6  0  0
   38.5223   44.8893   54.5089 C   0  0  0  0  0  0  0  0  0  7  0  0
   39.6761   44.4038   54.4166 O   0  0  0  0  0  0  0  0  0  8  0  0
   38.0277   45.1064   55.8012 C   0  0  0  0  0  0  0  0  0  9  0  0
   39.0069   44.7020   57.1816 S   0  0  1  0  0  6  0  0  0 10  0  0
   40.3063   45.4232   57.0805 O   0  0  0  0  0  0  0  0  0 11  0  0
   38.3214   45.3666   58.3932 O   0  0  0  0  0  0  0  0  0 12  0  0
   39.1049   43.0576   57.5050 N   0  0  0  0  0  0  0  0  0 13  0  0
   39.8788   42.3643   58.4561 C   0  0  0  0  0  0  0  0  0 14  0  0
   41.2419   42.4938   58.5784 C   0  0  0  0  0  0  0  0  0 15  0  0
   41.9637   41.7959   59.5518 C   0  0  0  0  0  0  0  0  0 16  0  0
   41.3315   40.9472   60.4305 C   0  0  0  0  0  0  0  0  0 17  0  0
   39.9639   40.8075   60.3201 C   0  0  0  0  0  0  0  0  0 18  0  0
   39.2551   41.4978   59.3581 C   0  0  0  0  0  0  0  0  0 19  0  0
   37.8969   41.3277   59.2857 F   0  0  0  0  0  0  0  0  0 20  0  0
  1  2  1  1
  2  3  1  0
  3  4  2  0
  4  5  1  0
  4  6  1  0
  6  7  1  0
  7  8  2  0
  7  9  1  0
  2  9  2  0
  9 10  1  0
 10 11  2  0
 10 12  2  0
 10 13  1  1
 13 14  1  0
 14 15  2  0
 15 16  1  0
 16 17  2  0
 17 18  1  0
 18 19  2  0
 14 19  1  0
 19 20  1  0
M  END
>  <fitscore>  (18) 
0.34428

$$$$
sQC_Substrate__STL420760_rank_18
     RDKit          3D

 20 21  0  0  0  0  0  0  0  0999 V2000
   38.5399   46.7867   56.8346 C   0  0  0  0  0  0  0  0  0  1  0  0
   38.1101   45.8182   55.8055 C   0  0  0  0  0  0  0  0  0  2  0  0
   38.1885   46.2757   54.5160 N   0  0  0  0  0  0  0  0  0  3  0  0
   37.8383   45.5175   53.4784 C   0  0  0  0  0  0  0  0  0  4  0  0
   37.9064   45.9532   52.1553 O   0  0  0  0  0  0  0  0  0  5  0  0
   37.3975   44.2763   53.6877 N   0  0  0  0  0  0  0  0  0  6  0  0
   37.3057   43.7924   54.9241 C   0  0  0  0  0  0  0  0  0  7  0  0
   36.8928   42.6267   55.1384 O   0  0  0  0  0  0  0  0  0  8  0  0
   37.6627   44.5541   56.0440 C   0  0  0  0  0  0  0  0  0  9  0  0
   37.5194   43.8696   57.6374 S   0  0  1  0  0  6  0  0  0 10  0  0
   37.3297   44.9715   58.6216 O   0  0  0  0  0  0  0  0  0 11  0  0
   36.1644   43.1326   57.6587 O   0  0  0  0  0  0  0  0  0 12  0  0
   38.7048   42.7434   58.0179 N   0  0  0  0  0  0  0  0  0 13  0  0
   39.5878   42.6905   59.1142 C   0  0  0  0  0  0  0  0  0 14  0  0
   39.3599   43.3207   60.3145 C   0  0  0  0  0  0  0  0  0 15  0  0
   40.2603   43.2233   61.3801 C   0  0  0  0  0  0  0  0  0 16  0  0
   41.4165   42.4870   61.2661 C   0  0  0  0  0  0  0  0  0 17  0  0
   41.6584   41.8488   60.0678 C   0  0  0  0  0  0  0  0  0 18  0  0
   40.7676   41.9474   59.0184 C   0  0  0  0  0  0  0  0  0 19  0  0
   41.0496   41.2959   57.8458 F   0  0  0  0  0  0  0  0  0 20  0  0
  1  2  1  1
  2  3  1  0
  3  4  2  0
  4  5  1  0
  4  6  1  0
  6  7  1  0
  7  8  2  0
  7  9  1  0
  2  9  2  0
  9 10  1  0
 10 11  2  0
 10 12  2  0
 10 13  1  1
 13 14  1  0
 14 15  2  0
 15 16  1  0
 16 17  2  0
 17 18  1  0
 18 19  2  0
 14 19  1  0
 19 20  1  0
M  END
>  <fitscore>  (19) 
0.341037

$$$$
sQC_Substrate__STL420760_rank_19
     RDKit          3D

 20 21  0  0  0  0  0  0  0  0999 V2000
   37.0659   46.1909   57.1196 C   0  0  0  0  0  0  0  0  0  1  0  0
   37.4071   45.6986   55.7694 C   0  0  0  0  0  0  0  0  0  2  0  0
   36.5260   46.0618   54.7845 N   0  0  0  0  0  0  0  0  0  3  0  0
   36.6999   45.6960   53.5157 C   0  0  0  0  0  0  0  0  0  4  0  0
   35.8222   46.0491   52.4909 O   0  0  0  0  0  0  0  0  0  5  0  0
   37.7575   44.9552   53.1819 N   0  0  0  0  0  0  0  0  0  6  0  0
   38.6377   44.5805   54.1071 C   0  0  0  0  0  0  0  0  0  7  0  0
   39.6383   43.8834   53.8099 O   0  0  0  0  0  0  0  0  0  8  0  0
   38.4946   44.9421   55.4527 C   0  0  0  0  0  0  0  0  0  9  0  0
   39.6760   44.4210   56.6191 S   0  0  1  0  0  6  0  0  0 10  0  0
   40.8992   43.9689   55.8993 O   0  0  0  0  0  0  0  0  0 11  0  0
   40.1404   45.6989   57.3477 O   0  0  0  0  0  0  0  0  0 12  0  0
   39.0823   43.3702   57.7860 N   0  0  0  0  0  0  0  0  0 13  0  0
   39.7226   42.7995   58.9034 C   0  0  0  0  0  0  0  0  0 14  0  0
   41.0848   42.7958   59.0886 C   0  0  0  0  0  0  0  0  0 15  0  0
   41.6719   42.2308   60.2252 C   0  0  0  0  0  0  0  0  0 16  0  0
   40.9021   41.6536   61.2081 C   0  0  0  0  0  0  0  0  0 17  0  0
   39.5338   41.6503   61.0362 C   0  0  0  0  0  0  0  0  0 18  0  0
   38.9580   42.2086   59.9132 C   0  0  0  0  0  0  0  0  0 19  0  0
   37.5936   42.1823   59.7849 F   0  0  0  0  0  0  0  0  0 20  0  0
  1  2  1  1
  2  3  1  0
  3  4  2  0
  4  5  1  0
  4  6  1  0
  6  7  1  0
  7  8  2  0
  7  9  1  0
  2  9  2  0
  9 10  1  0
 10 11  2  0
 10 12  2  0
 10 13  1  1
 13 14  1  0
 14 15  2  0
 15 16  1  0
 16 17  2  0
 17 18  1  0
 18 19  2  0
 14 19  1  0
 19 20  1  0
M  END
>  <fitscore>  (20) 
0.339082

$$$$
sQC_Substrate__STL420760_rank_20
     RDKit          3D

 20 21  0  0  0  0  0  0  0  0999 V2000
   40.3299   44.8427   56.0480 C   0  0  0  0  0  0  0  0  0  1  0  0
   39.0921   44.6158   55.2747 C   0  0  0  0  0  0  0  0  0  2  0  0
   39.2303   44.7418   53.9170 N   0  0  0  0  0  0  0  0  0  3  0  0
   38.2043   44.5644   53.0864 C   0  0  0  0  0  0  0  0  0  4  0  0
   38.3121   44.6854   51.7012 O   0  0  0  0  0  0  0  0  0  5  0  0
   37.0038   44.2550   53.5779 N   0  0  0  0  0  0  0  0  0  6  0  0
   36.8256   44.1230   54.8902 C   0  0  0  0  0  0  0  0  0  7  0  0
   35.7024   43.8322   55.3691 O   0  0  0  0  0  0  0  0  0  8  0  0
   37.8756   44.3005   55.8000 C   0  0  0  0  0  0  0  0  0  9  0  0
   37.5830   44.1174   57.5055 S   0  0  1  0  0  6  0  0  0 10  0  0
   37.1882   45.4371   58.0725 O   0  0  0  0  0  0  0  0  0 11  0  0
   36.2952   43.2766   57.6238 O   0  0  0  0  0  0  0  0  0 12  0  0
   38.7915   43.2966   58.3326 N   0  0  0  0  0  0  0  0  0 13  0  0
   39.0215   43.1743   59.7169 C   0  0  0  0  0  0  0  0  0 14  0  0
   38.0444   43.3182   60.6732 C   0  0  0  0  0  0  0  0  0 15  0  0
   38.3202   43.1699   62.0361 C   0  0  0  0  0  0  0  0  0 16  0  0
   39.5896   42.8717   62.4741 C   0  0  0  0  0  0  0  0  0 17  0  0
   40.5801   42.7239   61.5261 C   0  0  0  0  0  0  0  0  0 18  0  0
   40.3042   42.8713   60.1820 C   0  0  0  0  0  0  0  0  0 19  0  0
   41.3205   42.7154   59.2755 F   0  0  0  0  0  0  0  0  0 20  0  0
  1  2  1  1
  2  3  1  0
  3  4  2  0
  4  5  1  0
  4  6  1  0
  6  7  1  0
  7  8  2  0
  7  9  1  0
  2  9  2  0
  9 10  1  0
 10 11  2  0
 10 12  2  0
 10 13  1  1
 13 14  1  0
 14 15  2  0
 15 16  1  0
 16 17  2  0
 17 18  1  0
 18 19  2  0
 14 19  1  0
 19 20  1  0
M  END
>  <fitscore>  (21) 
0.334411

$$$$
sQC_Substrate__STL420760_rank_21
     RDKit          3D

 20 21  0  0  0  0  0  0  0  0999 V2000
   40.1897   46.6621   54.7855 C   0  0  0  0  0  0  0  0  0  1  0  0
   39.1185   45.6722   54.5518 C   0  0  0  0  0  0  0  0  0  2  0  0
   38.6906   45.5831   53.2530 N   0  0  0  0  0  0  0  0  0  3  0  0
   37.7323   44.7343   52.8851 C   0  0  0  0  0  0  0  0  0  4  0  0
   37.2748   44.6195   51.5727 O   0  0  0  0  0  0  0  0  0  5  0  0
   37.1656   43.9437   53.7977 N   0  0  0  0  0  0  0  0  0  6  0  0
   37.5513   43.9981   55.0703 C   0  0  0  0  0  0  0  0  0  7  0  0
   37.0285   43.2612   55.9415 O   0  0  0  0  0  0  0  0  0  8  0  0
   38.5547   44.8751   55.5015 C   0  0  0  0  0  0  0  0  0  9  0  0
   39.0162   44.9042   57.1789 S   0  0  1  0  0  6  0  0  0 10  0  0
   40.2880   45.6673   57.3173 O   0  0  0  0  0  0  0  0  0 11  0  0
   37.9803   45.8029   57.8851 O   0  0  0  0  0  0  0  0  0 12  0  0
   38.9746   43.4065   57.9361 N   0  0  0  0  0  0  0  0  0 13  0  0
   39.8640   42.8353   58.8671 C   0  0  0  0  0  0  0  0  0 14  0  0
   41.2228   43.0436   58.8583 C   0  0  0  0  0  0  0  0  0 15  0  0
   42.0625   42.4669   59.8164 C   0  0  0  0  0  0  0  0  0 16  0  0
   41.5561   41.6636   60.8115 C   0  0  0  0  0  0  0  0  0 17  0  0
   40.1945   41.4458   60.8332 C   0  0  0  0  0  0  0  0  0 18  0  0
   39.3690   42.0165   59.8859 C   0  0  0  0  0  0  0  0  0 19  0  0
   38.0216   41.7721   59.9469 F   0  0  0  0  0  0  0  0  0 20  0  0
  1  2  1  1
  2  3  1  0
  3  4  2  0
  4  5  1  0
  4  6  1  0
  6  7  1  0
  7  8  2  0
  7  9  1  0
  2  9  2  0
  9 10  1  0
 10 11  2  0
 10 12  2  0
 10 13  1  1
 13 14  1  0
 14 15  2  0
 15 16  1  0
 16 17  2  0
 17 18  1  0
 18 19  2  0
 14 19  1  0
 19 20  1  0
M  END
>  <fitscore>  (22) 
0.325464

$$$$
sQC_Substrate__STL420760_rank_22
     RDKit          3D

 20 21  0  0  0  0  0  0  0  0999 V2000
   36.0577   46.8400   57.4898 C   0  0  0  0  0  0  0  0  0  1  0  0
   36.5106   46.1309   56.2758 C   0  0  0  0  0  0  0  0  0  2  0  0
   36.2359   46.7741   55.0973 N   0  0  0  0  0  0  0  0  0  3  0  0
   36.5844   46.2612   53.9185 C   0  0  0  0  0  0  0  0  0  4  0  0
   36.3196   46.8903   52.7023 O   0  0  0  0  0  0  0  0  0  5  0  0
   37.2189   45.0890   53.8710 N   0  0  0  0  0  0  0  0  0  6  0  0
   37.5051   44.4309   54.9918 C   0  0  0  0  0  0  0  0  0  7  0  0
   38.1017   43.3269   54.9647 O   0  0  0  0  0  0  0  0  0  8  0  0
   37.1577   44.9326   56.2525 C   0  0  0  0  0  0  0  0  0  9  0  0
   37.5555   44.0267   57.6839 S   0  0  1  0  0  6  0  0  0 10  0  0
   37.2937   44.8742   58.8807 O   0  0  0  0  0  0  0  0  0 11  0  0
   36.4891   42.9173   57.7901 O   0  0  0  0  0  0  0  0  0 12  0  0
   39.0548   43.2732   57.6337 N   0  0  0  0  0  0  0  0  0 13  0  0
   40.2220   43.5239   58.3814 C   0  0  0  0  0  0  0  0  0 14  0  0
   40.5384   44.7470   58.9235 C   0  0  0  0  0  0  0  0  0 15  0  0
   41.7025   44.9410   59.6738 C   0  0  0  0  0  0  0  0  0 16  0  0
   42.5810   43.9070   59.8995 C   0  0  0  0  0  0  0  0  0 17  0  0
   42.2765   42.6740   59.3621 C   0  0  0  0  0  0  0  0  0 18  0  0
   41.1270   42.4864   58.6221 C   0  0  0  0  0  0  0  0  0 19  0  0
   40.8653   41.2432   58.1073 F   0  0  0  0  0  0  0  0  0 20  0  0
  1  2  1  1
  2  3  1  0
  3  4  2  0
  4  5  1  0
  4  6  1  0
  6  7  1  0
  7  8  2  0
  7  9  1  0
  2  9  2  0
  9 10  1  0
 10 11  2  0
 10 12  2  0
 10 13  1  6
 13 14  1  0
 14 15  2  0
 15 16  1  0
 16 17  2  0
 17 18  1  0
 18 19  2  0
 14 19  1  0
 19 20  1  0
M  END
>  <fitscore>  (23) 
0.323645

$$$$
sQC_Substrate__STL420760_rank_23
     RDKit          3D

 20 21  0  0  0  0  0  0  0  0999 V2000
   39.7410   45.6548   55.3040 C   0  0  0  0  0  0  0  0  0  1  0  0
   38.4744   44.9004   55.2123 C   0  0  0  0  0  0  0  0  0  2  0  0
   37.9010   44.8875   53.9676 N   0  0  0  0  0  0  0  0  0  3  0  0
   36.7582   44.2471   53.7265 C   0  0  0  0  0  0  0  0  0  4  0  0
   36.1495   44.2151   52.4722 O   0  0  0  0  0  0  0  0  0  5  0  0
   36.1454   43.5965   54.7164 N   0  0  0  0  0  0  0  0  0  6  0  0
   36.6679   43.5836   55.9404 C   0  0  0  0  0  0  0  0  0  7  0  0
   36.1040   42.9762   56.8830 O   0  0  0  0  0  0  0  0  0  8  0  0
   37.8670   44.2431   56.2389 C   0  0  0  0  0  0  0  0  0  9  0  0
   38.5014   44.1939   57.8584 S   0  0  1  0  0  6  0  0  0 10  0  0
   38.7855   45.5851   58.3088 O   0  0  0  0  0  0  0  0  0 11  0  0
   37.3263   43.7588   58.7580 O   0  0  0  0  0  0  0  0  0 12  0  0
   39.7398   43.0833   58.0850 N   0  0  0  0  0  0  0  0  0 13  0  0
   40.8357   43.1140   58.9694 C   0  0  0  0  0  0  0  0  0 14  0  0
   42.0563   43.6660   58.6605 C   0  0  0  0  0  0  0  0  0 15  0  0
   43.1091   43.6873   59.5807 C   0  0  0  0  0  0  0  0  0 16  0  0
   42.9613   43.1527   60.8394 C   0  0  0  0  0  0  0  0  0 17  0  0
   41.7421   42.5957   61.1637 C   0  0  0  0  0  0  0  0  0 18  0  0
   40.7055   42.5764   60.2530 C   0  0  0  0  0  0  0  0  0 19  0  0
   39.5113   42.0122   60.6194 F   0  0  0  0  0  0  0  0  0 20  0  0
  1  2  1  1
  2  3  1  0
  3  4  2  0
  4  5  1  0
  4  6  1  0
  6  7  1  0
  7  8  2  0
  7  9  1  0
  2  9  2  0
  9 10  1  0
 10 11  2  0
 10 12  2  0
 10 13  1  6
 13 14  1  0
 14 15  2  0
 15 16  1  0
 16 17  2  0
 17 18  1  0
 18 19  2  0
 14 19  1  0
 19 20  1  0
M  END
>  <fitscore>  (24) 
0.320884

$$$$
sQC_Substrate__STL420760_rank_24
     RDKit          3D

 20 21  0  0  0  0  0  0  0  0999 V2000
   35.8400   42.8974   56.0853 C   0  0  0  0  0  0  0  0  0  1  0  0
   36.7058   44.0317   55.7037 C   0  0  0  0  0  0  0  0  0  2  0  0
   36.5711   44.4470   54.4046 N   0  0  0  0  0  0  0  0  0  3  0  0
   37.2823   45.4602   53.9130 C   0  0  0  0  0  0  0  0  0  4  0  0
   37.1687   45.9066   52.5967 O   0  0  0  0  0  0  0  0  0  5  0  0
   38.1533   46.0963   54.6976 N   0  0  0  0  0  0  0  0  0  6  0  0
   38.3153   45.7253   55.9654 C   0  0  0  0  0  0  0  0  0  7  0  0
   39.1306   46.3133   56.7170 O   0  0  0  0  0  0  0  0  0  8  0  0
   37.5890   44.6659   56.5239 C   0  0  0  0  0  0  0  0  0  9  0  0
   37.8447   44.2236   58.1872 S   0  0  1  0  0  6  0  0  0 10  0  0
   37.9752   45.4634   59.0025 O   0  0  0  0  0  0  0  0  0 11  0  0
   36.5121   43.6153   58.6707 O   0  0  0  0  0  0  0  0  0 12  0  0
   39.0357   43.0640   58.4217 N   0  0  0  0  0  0  0  0  0 13  0  0
   40.4256   43.2128   58.5949 C   0  0  0  0  0  0  0  0  0 14  0  0
   41.0004   43.8845   59.6477 C   0  0  0  0  0  0  0  0  0 15  0  0
   42.3881   43.9898   59.7845 C   0  0  0  0  0  0  0  0  0 16  0  0
   43.2365   43.4204   58.8637 C   0  0  0  0  0  0  0  0  0 17  0  0
   42.6742   42.7429   57.8022 C   0  0  0  0  0  0  0  0  0 18  0  0
   41.3043   42.6412   57.6705 C   0  0  0  0  0  0  0  0  0 19  0  0
   40.7901   41.9581   56.5990 F   0  0  0  0  0  0  0  0  0 20  0  0
  1  2  1  1
  2  3  1  0
  3  4  2  0
  4  5  1  0
  4  6  1  0
  6  7  1  0
  7  8  2  0
  7  9  1  0
  2  9  2  0
  9 10  1  0
 10 11  2  0
 10 12  2  0
 10 13  1  6
 13 14  1  0
 14 15  2  0
 15 16  1  0
 16 17  2  0
 17 18  1  0
 18 19  2  0
 14 19  1  0
 19 20  1  0
M  END
>  <fitscore>  (25) 
0.319532

$$$$
sQC_Substrate__STL420760_rank_25
     RDKit          3D

 20 21  0  0  0  0  0  0  0  0999 V2000
   37.8413   47.7901   56.5490 C   0  0  0  0  0  0  0  0  0  1  0  0
   37.9961   46.6402   55.6350 C   0  0  0  0  0  0  0  0  0  2  0  0
   37.9470   46.9540   54.3018 N   0  0  0  0  0  0  0  0  0  3  0  0
   38.0737   46.0250   53.3557 C   0  0  0  0  0  0  0  0  0  4  0  0
   38.0282   46.3116   51.9916 O   0  0  0  0  0  0  0  0  0  5  0  0
   38.2539   44.7501   53.7033 N   0  0  0  0  0  0  0  0  0  6  0  0
   38.3077   44.4019   54.9867 C   0  0  0  0  0  0  0  0  0  7  0  0
   38.4767   43.2067   55.3308 O   0  0  0  0  0  0  0  0  0  8  0  0
   38.1793   45.3450   56.0143 C   0  0  0  0  0  0  0  0  0  9  0  0
   38.2552   44.8310   57.6749 S   0  0  1  0  0  6  0  0  0 10  0  0
   39.2072   45.7098   58.4099 O   0  0  0  0  0  0  0  0  0 11  0  0
   36.8871   45.1908   58.2900 O   0  0  0  0  0  0  0  0  0 12  0  0
   38.4749   43.1794   57.8806 N   0  0  0  0  0  0  0  0  0 13  0  0
   38.6244   42.4237   59.0600 C   0  0  0  0  0  0  0  0  0 14  0  0
   37.6568   42.3159   60.0305 C   0  0  0  0  0  0  0  0  0 15  0  0
   37.8471   41.5381   61.1770 C   0  0  0  0  0  0  0  0  0 16  0  0
   39.0187   40.8461   61.3778 C   0  0  0  0  0  0  0  0  0 17  0  0
   39.9986   40.9445   60.4123 C   0  0  0  0  0  0  0  0  0 18  0  0
   39.8073   41.7132   59.2823 C   0  0  0  0  0  0  0  0  0 19  0  0
   40.8092   41.7815   58.3493 F   0  0  0  0  0  0  0  0  0 20  0  0
  1  2  1  1
  2  3  1  0
  3  4  2  0
  4  5  1  0
  4  6  1  0
  6  7  1  0
  7  8  2  0
  7  9  1  0
  2  9  2  0
  9 10  1  0
 10 11  2  0
 10 12  2  0
 10 13  1  6
 13 14  1  0
 14 15  2  0
 15 16  1  0
 16 17  2  0
 17 18  1  0
 18 19  2  0
 14 19  1  0
 19 20  1  0
M  END
>  <fitscore>  (26) 
0.317631

$$$$
sQC_Substrate__STL420760_rank_26
     RDKit          3D

 20 21  0  0  0  0  0  0  0  0999 V2000
   37.0089   46.0642   57.7441 C   0  0  0  0  0  0  0  0  0  1  0  0
   37.4821   45.7896   56.3720 C   0  0  0  0  0  0  0  0  0  2  0  0
   36.6340   46.2017   55.3775 N   0  0  0  0  0  0  0  0  0  3  0  0
   36.9233   46.0262   54.0892 C   0  0  0  0  0  0  0  0  0  4  0  0
   36.0822   46.4337   53.0541 O   0  0  0  0  0  0  0  0  0  5  0  0
   38.0677   45.4340   53.7451 N   0  0  0  0  0  0  0  0  0  6  0  0
   38.9198   45.0185   54.6791 C   0  0  0  0  0  0  0  0  0  7  0  0
   40.0009   44.4595   54.3723 O   0  0  0  0  0  0  0  0  0  8  0  0
   38.6565   45.1824   56.0450 C   0  0  0  0  0  0  0  0  0  9  0  0
   39.8069   44.6170   57.2218 S   0  0  1  0  0  6  0  0  0 10  0  0
   41.1695   44.6510   56.6210 O   0  0  0  0  0  0  0  0  0 11  0  0
   39.8674   45.7088   58.3098 O   0  0  0  0  0  0  0  0  0 12  0  0
   39.3760   43.1822   57.9796 N   0  0  0  0  0  0  0  0  0 13  0  0
   39.8712   42.5954   59.1605 C   0  0  0  0  0  0  0  0  0 14  0  0
   41.1864   42.2430   59.3496 C   0  0  0  0  0  0  0  0  0 15  0  0
   41.6326   41.6785   60.5487 C   0  0  0  0  0  0  0  0  0 16  0  0
   40.7651   41.4532   61.5921 C   0  0  0  0  0  0  0  0  0 17  0  0
   39.4424   41.8021   61.4171 C   0  0  0  0  0  0  0  0  0 18  0  0
   39.0058   42.3588   60.2323 C   0  0  0  0  0  0  0  0  0 19  0  0
   37.6819   42.6899   60.1034 F   0  0  0  0  0  0  0  0  0 20  0  0
  1  2  1  1
  2  3  1  0
  3  4  2  0
  4  5  1  0
  4  6  1  0
  6  7  1  0
  7  8  2  0
  7  9  1  0
  2  9  2  0
  9 10  1  0
 10 11  2  0
 10 12  2  0
 10 13  1  1
 13 14  1  0
 14 15  2  0
 15 16  1  0
 16 17  2  0
 17 18  1  0
 18 19  2  0
 14 19  1  0
 19 20  1  0
M  END
>  <fitscore>  (27) 
0.311114

$$$$
sQC_Substrate__STL420760_rank_27
     RDKit          3D

 20 21  0  0  0  0  0  0  0  0999 V2000
   40.3720   45.7242   55.4643 C   0  0  0  0  0  0  0  0  0  1  0  0
   39.2796   44.9544   54.8351 C   0  0  0  0  0  0  0  0  0  2  0  0
   39.4275   44.7397   53.4897 N   0  0  0  0  0  0  0  0  0  3  0  0
   38.5263   44.0597   52.7829 C   0  0  0  0  0  0  0  0  0  4  0  0
   38.6475   43.8242   51.4136 O   0  0  0  0  0  0  0  0  0  5  0  0
   37.4452   43.5691   53.3907 N   0  0  0  0  0  0  0  0  0  6  0  0
   37.2624   43.7547   54.6958 C   0  0  0  0  0  0  0  0  0  7  0  0
   36.2507   43.2997   55.2830 O   0  0  0  0  0  0  0  0  0  8  0  0
   38.1837   44.4631   55.4776 C   0  0  0  0  0  0  0  0  0  9  0  0
   37.8909   44.6764   57.1795 S   0  0  1  0  0  6  0  0  0 10  0  0
   38.0641   46.1154   57.5232 O   0  0  0  0  0  0  0  0  0 11  0  0
   36.3798   44.4394   57.3797 O   0  0  0  0  0  0  0  0  0 12  0  0
   38.7010   43.5852   58.1651 N   0  0  0  0  0  0  0  0  0 13  0  0
   39.1831   43.7348   59.4801 C   0  0  0  0  0  0  0  0  0 14  0  0
   38.4606   44.3024   60.5027 C   0  0  0  0  0  0  0  0  0 15  0  0
   38.9779   44.4123   61.7973 C   0  0  0  0  0  0  0  0  0 16  0  0
   40.2389   43.9527   62.0982 C   0  0  0  0  0  0  0  0  0 17  0  0
   40.9754   43.3804   61.0824 C   0  0  0  0  0  0  0  0  0 18  0  0
   40.4616   43.2738   59.8060 C   0  0  0  0  0  0  0  0  0 19  0  0
   41.2300   42.6976   58.8279 F   0  0  0  0  0  0  0  0  0 20  0  0
  1  2  1  1
  2  3  1  0
  3  4  2  0
  4  5  1  0
  4  6  1  0
  6  7  1  0
  7  8  2  0
  7  9  1  0
  2  9  2  0
  9 10  1  0
 10 11  2  0
 10 12  2  0
 10 13  1  1
 13 14  1  0
 14 15  2  0
 15 16  1  0
 16 17  2  0
 17 18  1  0
 18 19  2  0
 14 19  1  0
 19 20  1  0
M  END
>  <fitscore>  (28) 
0.275957

$$$$
sQC_Substrate__STL420760_rank_28
     RDKit          3D

 20 21  0  0  0  0  0  0  0  0999 V2000
   38.1588   46.5270   57.2407 C   0  0  0  0  0  0  0  0  0  1  0  0
   38.0955   45.8359   55.9367 C   0  0  0  0  0  0  0  0  0  2  0  0
   37.2489   46.4073   55.0230 N   0  0  0  0  0  0  0  0  0  3  0  0
   37.0864   45.9003   53.8020 C   0  0  0  0  0  0  0  0  0  4  0  0
   36.2333   46.4577   52.8498 O   0  0  0  0  0  0  0  0  0  5  0  0
   37.7612   44.8061   53.4471 N   0  0  0  0  0  0  0  0  0  6  0  0
   38.5938   44.2194   54.3039 C   0  0  0  0  0  0  0  0  0  7  0  0
   39.2363   43.1892   53.9858 O   0  0  0  0  0  0  0  0  0  8  0  0
   38.7952   44.7178   55.5973 C   0  0  0  0  0  0  0  0  0  9  0  0
   39.8946   43.9073   56.6753 S   0  0  1  0  0  6  0  0  0 10  0  0
   41.0526   43.3959   55.8902 O   0  0  0  0  0  0  0  0  0 11  0  0
   40.5166   45.0134   57.5523 O   0  0  0  0  0  0  0  0  0 12  0  0
   39.1655   42.8034   57.7088 N   0  0  0  0  0  0  0  0  0 13  0  0
   39.4873   42.4518   59.0343 C   0  0  0  0  0  0  0  0  0 14  0  0
   40.7634   42.4709   59.5454 C   0  0  0  0  0  0  0  0  0 15  0  0
   41.0293   42.1291   60.8751 C   0  0  0  0  0  0  0  0  0 16  0  0
   40.0159   41.7585   61.7281 C   0  0  0  0  0  0  0  0  0 17  0  0
   38.7304   41.7351   61.2294 C   0  0  0  0  0  0  0  0  0 18  0  0
   38.4718   42.0728   59.9166 C   0  0  0  0  0  0  0  0  0 19  0  0
   37.1782   42.0351   59.4647 F   0  0  0  0  0  0  0  0  0 20  0  0
  1  2  1  1
  2  3  1  0
  3  4  2  0
  4  5  1  0
  4  6  1  0
  6  7  1  0
  7  8  2  0
  7  9  1  0
  2  9  2  0
  9 10  1  0
 10 11  2  0
 10 12  2  0
 10 13  1  1
 13 14  1  0
 14 15  2  0
 15 16  1  0
 16 17  2  0
 17 18  1  0
 18 19  2  0
 14 19  1  0
 19 20  1  0
M  END
>  <fitscore>  (29) 
0.275395

$$$$
sQC_Substrate__STL420760_rank_29
     RDKit          3D

 20 21  0  0  0  0  0  0  0  0999 V2000
   37.9525   46.6585   57.0565 C   0  0  0  0  0  0  0  0  0  1  0  0
   38.2541   45.9161   55.8156 C   0  0  0  0  0  0  0  0  0  2  0  0
   37.5825   46.3551   54.7046 N   0  0  0  0  0  0  0  0  0  3  0  0
   37.7509   45.7878   53.5113 C   0  0  0  0  0  0  0  0  0  4  0  0
   37.0830   46.2107   52.3624 O   0  0  0  0  0  0  0  0  0  5  0  0
   38.5942   44.7627   53.3816 N   0  0  0  0  0  0  0  0  0  6  0  0
   39.2666   44.3048   54.4350 C   0  0  0  0  0  0  0  0  0  7  0  0
   40.0639   43.3412   54.3301 O   0  0  0  0  0  0  0  0  0  8  0  0
   39.1205   44.8708   55.7078 C   0  0  0  0  0  0  0  0  0  9  0  0
   40.0240   44.2286   57.0491 S   0  0  1  0  0  6  0  0  0 10  0  0
   41.2081   43.4917   56.5258 O   0  0  0  0  0  0  0  0  0 11  0  0
   40.6460   45.4480   57.7602 O   0  0  0  0  0  0  0  0  0 12  0  0
   39.0950   43.4110   58.1835 N   0  0  0  0  0  0  0  0  0 13  0  0
   39.4898   42.6474   59.2995 C   0  0  0  0  0  0  0  0  0 14  0  0
   40.7566   42.6662   59.8331 C   0  0  0  0  0  0  0  0  0 15  0  0
   41.0947   41.9019   60.9543 C   0  0  0  0  0  0  0  0  0 16  0  0
   40.1650   41.0967   61.5701 C   0  0  0  0  0  0  0  0  0 17  0  0
   38.8897   41.0681   61.0461 C   0  0  0  0  0  0  0  0  0 18  0  0
   38.5597   41.8235   59.9394 C   0  0  0  0  0  0  0  0  0 19  0  0
   37.2795   41.7634   59.4532 F   0  0  0  0  0  0  0  0  0 20  0  0
  1  2  1  1
  2  3  1  0
  3  4  2  0
  4  5  1  0
  4  6  1  0
  6  7  1  0
  7  8  2  0
  7  9  1  0
  2  9  2  0
  9 10  1  0
 10 11  2  0
 10 12  2  0
 10 13  1  1
 13 14  1  0
 14 15  2  0
 15 16  1  0
 16 17  2  0
 17 18  1  0
 18 19  2  0
 14 19  1  0
 19 20  1  0
M  END
>  <fitscore>  (30) 
0.268053

$$$$
sQC_Substrate__STL420760_rank_30
     RDKit          3D

 20 21  0  0  0  0  0  0  0  0999 V2000
   36.6638   46.2385   57.5390 C   0  0  0  0  0  0  0  0  0  1  0  0
   37.3878   45.8817   56.3020 C   0  0  0  0  0  0  0  0  0  2  0  0
   36.7976   46.3163   55.1440 N   0  0  0  0  0  0  0  0  0  3  0  0
   37.3326   46.0743   53.9484 C   0  0  0  0  0  0  0  0  0  4  0  0
   36.7573   46.5025   52.7523 O   0  0  0  0  0  0  0  0  0  5  0  0
   38.4747   45.3908   53.8631 N   0  0  0  0  0  0  0  0  0  6  0  0
   39.0811   44.9504   54.9629 C   0  0  0  0  0  0  0  0  0  7  0  0
   40.1562   44.3058   54.9002 O   0  0  0  0  0  0  0  0  0  8  0  0
   38.5545   45.1817   56.2401 C   0  0  0  0  0  0  0  0  0  9  0  0
   39.3901   44.5795   57.6425 S   0  0  1  0  0  6  0  0  0 10  0  0
   40.7987   45.0630   57.6107 O   0  0  0  0  0  0  0  0  0 11  0  0
   38.7821   45.3261   58.8478 O   0  0  0  0  0  0  0  0  0 12  0  0
   39.1856   42.9365   57.9197 N   0  0  0  0  0  0  0  0  0 13  0  0
   39.7567   42.1039   58.9020 C   0  0  0  0  0  0  0  0  0 14  0  0
   41.0886   42.1202   59.2424 C   0  0  0  0  0  0  0  0  0 15  0  0
   41.6045   41.2848   60.2381 C   0  0  0  0  0  0  0  0  0 16  0  0
   40.7920   40.4089   60.9199 C   0  0  0  0  0  0  0  0  0 17  0  0
   39.4534   40.3818   60.5895 C   0  0  0  0  0  0  0  0  0 18  0  0
   38.9479   41.2075   59.6061 C   0  0  0  0  0  0  0  0  0 19  0  0
   37.6106   41.1460   59.3113 F   0  0  0  0  0  0  0  0  0 20  0  0
  1  2  1  1
  2  3  1  0
  3  4  2  0
  4  5  1  0
  4  6  1  0
  6  7  1  0
  7  8  2  0
  7  9  1  0
  2  9  2  0
  9 10  1  0
 10 11  2  0
 10 12  2  0
 10 13  1  1
 13 14  1  0
 14 15  2  0
 15 16  1  0
 16 17  2  0
 17 18  1  0
 18 19  2  0
 14 19  1  0
 19 20  1  0
M  END
>  <fitscore>  (31) 
0.266927

$$$$
sQC_Substrate__STL420760_rank_31
     RDKit          3D

 20 21  0  0  0  0  0  0  0  0999 V2000
   40.1437   46.0155   55.8026 C   0  0  0  0  0  0  0  0  0  1  0  0
   38.9523   45.3034   55.2970 C   0  0  0  0  0  0  0  0  0  2  0  0
   38.3081   45.9243   54.2589 N   0  0  0  0  0  0  0  0  0  3  0  0
   37.2198   45.4035   53.6947 C   0  0  0  0  0  0  0  0  0  4  0  0
   36.5416   46.0099   52.6376 O   0  0  0  0  0  0  0  0  0  5  0  0
   36.7339   44.2455   54.1440 N   0  0  0  0  0  0  0  0  0  6  0  0
   37.3287   43.6093   55.1503 C   0  0  0  0  0  0  0  0  0  7  0  0
   36.8844   42.5189   55.5850 O   0  0  0  0  0  0  0  0  0  8  0  0
   38.4747   44.1200   55.7730 C   0  0  0  0  0  0  0  0  0  9  0  0
   39.2084   43.2454   57.0862 S   0  0  1  0  0  6  0  0  0 10  0  0
   38.6678   41.8575   57.1044 O   0  0  0  0  0  0  0  0  0 11  0  0
   40.6858   43.0494   56.6881 O   0  0  0  0  0  0  0  0  0 12  0  0
   39.1921   44.0573   58.5555 N   0  0  0  0  0  0  0  0  0 13  0  0
   39.9681   43.8539   59.7133 C   0  0  0  0  0  0  0  0  0 14  0  0
   41.3246   44.0677   59.7756 C   0  0  0  0  0  0  0  0  0 15  0  0
   42.0483   43.8677   60.9554 C   0  0  0  0  0  0  0  0  0 16  0  0
   41.4247   43.4465   62.1068 C   0  0  0  0  0  0  0  0  0 17  0  0
   40.0638   43.2283   62.0595 C   0  0  0  0  0  0  0  0  0 18  0  0
   39.3531   43.4266   60.8934 C   0  0  0  0  0  0  0  0  0 19  0  0
   38.0017   43.1970   60.8934 F   0  0  0  0  0  0  0  0  0 20  0  0
  1  2  1  1
  2  3  1  0
  3  4  2  0
  4  5  1  0
  4  6  1  0
  6  7  1  0
  7  8  2  0
  7  9  1  0
  2  9  2  0
  9 10  1  0
 10 11  2  0
 10 12  2  0
 10 13  1  1
 13 14  1  0
 14 15  2  0
 15 16  1  0
 16 17  2  0
 17 18  1  0
 18 19  2  0
 14 19  1  0
 19 20  1  0
M  END
>  <fitscore>  (32) 
0.256026

$$$$
sQC_Substrate__STL420760_rank_32
     RDKit          3D

 20 21  0  0  0  0  0  0  0  0999 V2000
   40.5446   46.1989   56.0523 C   0  0  0  0  0  0  0  0  0  1  0  0
   39.5138   45.4976   55.2601 C   0  0  0  0  0  0  0  0  0  2  0  0
   39.5608   45.7391   53.9119 N   0  0  0  0  0  0  0  0  0  3  0  0
   38.6987   45.1770   53.0665 C   0  0  0  0  0  0  0  0  0  4  0  0
   38.7200   45.4022   51.6903 O   0  0  0  0  0  0  0  0  0  5  0  0
   37.7586   44.3541   53.5333 N   0  0  0  0  0  0  0  0  0  6  0  0
   37.6774   44.0923   54.8356 C   0  0  0  0  0  0  0  0  0  7  0  0
   36.7989   43.3203   55.2913 O   0  0  0  0  0  0  0  0  0  8  0  0
   38.5626   44.6609   55.7603 C   0  0  0  0  0  0  0  0  0  9  0  0
   38.4070   44.2838   57.4518 S   0  0  1  0  0  6  0  0  0 10  0  0
   38.4634   45.5488   58.2363 O   0  0  0  0  0  0  0  0  0 11  0  0
   36.9527   43.8068   57.6448 O   0  0  0  0  0  0  0  0  0 12  0  0
   39.4112   43.0475   57.9823 N   0  0  0  0  0  0  0  0  0 13  0  0
   39.9705   42.8152   59.2541 C   0  0  0  0  0  0  0  0  0 14  0  0
   41.2719   43.1092   59.5857 C   0  0  0  0  0  0  0  0  0 15  0  0
   41.7756   42.8755   60.8691 C   0  0  0  0  0  0  0  0  0 16  0  0
   40.9814   42.3389   61.8556 C   0  0  0  0  0  0  0  0  0 17  0  0
   39.6733   42.0393   61.5377 C   0  0  0  0  0  0  0  0  0 18  0  0
   39.1798   42.2711   60.2700 C   0  0  0  0  0  0  0  0  0 19  0  0
   37.8730   41.9576   59.9996 F   0  0  0  0  0  0  0  0  0 20  0  0
  1  2  1  1
  2  3  1  0
  3  4  2  0
  4  5  1  0
  4  6  1  0
  6  7  1  0
  7  8  2  0
  7  9  1  0
  2  9  2  0
  9 10  1  0
 10 11  2  0
 10 12  2  0
 10 13  1  1
 13 14  1  0
 14 15  2  0
 15 16  1  0
 16 17  2  0
 17 18  1  0
 18 19  2  0
 14 19  1  0
 19 20  1  0
M  END
>  <fitscore>  (33) 
0.235773

$$$$
sQC_Substrate__STL420760_rank_33
     RDKit          3D

 20 21  0  0  0  0  0  0  0  0999 V2000
   39.4767   43.2796   54.6424 C   0  0  0  0  0  0  0  0  0  1  0  0
   38.1691   43.9526   54.7810 C   0  0  0  0  0  0  0  0  0  2  0  0
   37.6530   44.4533   53.6143 N   0  0  0  0  0  0  0  0  0  3  0  0
   36.4808   45.0846   53.5780 C   0  0  0  0  0  0  0  0  0  4  0  0
   35.9285   45.6052   52.4079 O   0  0  0  0  0  0  0  0  0  5  0  0
   35.7803   45.2400   54.7022 N   0  0  0  0  0  0  0  0  0  6  0  0
   36.2449   44.7691   55.8571 C   0  0  0  0  0  0  0  0  0  7  0  0
   35.5983   44.9070   56.9240 O   0  0  0  0  0  0  0  0  0  8  0  0
   37.4720   44.0993   55.9418 C   0  0  0  0  0  0  0  0  0  9  0  0
   38.0302   43.5072   57.4799 S   0  0  1  0  0  6  0  0  0 10  0  0
   36.9650   43.7268   58.4978 O   0  0  0  0  0  0  0  0  0 11  0  0
   38.0859   41.9715   57.3449 O   0  0  0  0  0  0  0  0  0 12  0  0
   39.5689   44.0258   57.9061 N   0  0  0  0  0  0  0  0  0 13  0  0
   40.3942   43.6336   58.9781 C   0  0  0  0  0  0  0  0  0 14  0  0
   40.1699   43.9851   60.2881 C   0  0  0  0  0  0  0  0  0 15  0  0
   41.0100   43.5553   61.3201 C   0  0  0  0  0  0  0  0  0 16  0  0
   42.1006   42.7583   61.0610 C   0  0  0  0  0  0  0  0  0 17  0  0
   42.3381   42.3973   59.7514 C   0  0  0  0  0  0  0  0  0 18  0  0
   41.5069   42.8235   58.7355 C   0  0  0  0  0  0  0  0  0 19  0  0
   41.7820   42.4397   57.4487 F   0  0  0  0  0  0  0  0  0 20  0  0
  1  2  1  1
  2  3  1  0
  3  4  2  0
  4  5  1  0
  4  6  1  0
  6  7  1  0
  7  8  2  0
  7  9  1  0
  2  9  2  0
  9 10  1  0
 10 11  2  0
 10 12  2  0
 10 13  1  1
 13 14  1  0
 14 15  2  0
 15 16  1  0
 16 17  2  0
 17 18  1  0
 18 19  2  0
 14 19  1  0
 19 20  1  0
M  END
>  <fitscore>  (34) 
0.217748

$$$$
sQC_Substrate__STL420760_rank_34
     RDKit          3D

 20 21  0  0  0  0  0  0  0  0999 V2000
   40.4794   45.7318   55.3393 C   0  0  0  0  0  0  0  0  0  1  0  0
   39.0916   45.3432   55.0155 C   0  0  0  0  0  0  0  0  0  2  0  0
   38.4714   46.1413   54.0900 N   0  0  0  0  0  0  0  0  0  3  0  0
   37.2199   45.9165   53.6936 C   0  0  0  0  0  0  0  0  0  4  0  0
   36.5610   46.7095   52.7545 O   0  0  0  0  0  0  0  0  0  5  0  0
   36.5409   44.8886   54.2047 N   0  0  0  0  0  0  0  0  0  6  0  0
   37.1054   44.0885   55.1061 C   0  0  0  0  0  0  0  0  0  7  0  0
   36.4804   43.1170   55.5969 O   0  0  0  0  0  0  0  0  0  8  0  0
   38.4183   44.2876   55.5516 C   0  0  0  0  0  0  0  0  0  9  0  0
   39.1034   43.2104   56.7340 S   0  0  1  0  0  6  0  0  0 10  0  0
   38.2046   42.0335   56.8941 O   0  0  0  0  0  0  0  0  0 11  0  0
   40.3645   42.6118   56.0777 O   0  0  0  0  0  0  0  0  0 12  0  0
   39.5897   43.9595   58.1556 N   0  0  0  0  0  0  0  0  0 13  0  0
   39.6268   43.4662   59.4745 C   0  0  0  0  0  0  0  0  0 14  0  0
   38.5324   43.4111   60.3045 C   0  0  0  0  0  0  0  0  0 15  0  0
   38.6171   42.8957   61.6017 C   0  0  0  0  0  0  0  0  0 16  0  0
   39.8081   42.4205   62.0994 C   0  0  0  0  0  0  0  0  0 17  0  0
   40.9147   42.4690   61.2778 C   0  0  0  0  0  0  0  0  0 18  0  0
   40.8273   42.9785   59.9983 C   0  0  0  0  0  0  0  0  0 19  0  0
   41.9535   43.0068   59.2175 F   0  0  0  0  0  0  0  0  0 20  0  0
  1  2  1  1
  2  3  1  0
  3  4  2  0
  4  5  1  0
  4  6  1  0
  6  7  1  0
  7  8  2  0
  7  9  1  0
  2  9  2  0
  9 10  1  0
 10 11  2  0
 10 12  2  0
 10 13  1  1
 13 14  1  0
 14 15  2  0
 15 16  1  0
 16 17  2  0
 17 18  1  0
 18 19  2  0
 14 19  1  0
 19 20  1  0
M  END
>  <fitscore>  (35) 
0.208842

$$$$
sQC_Substrate__STL420760_rank_35
     RDKit          3D

 20 21  0  0  0  0  0  0  0  0999 V2000
   39.9651   44.9595   55.5424 C   0  0  0  0  0  0  0  0  0  1  0  0
   38.7168   44.2602   55.1756 C   0  0  0  0  0  0  0  0  0  2  0  0
   38.4589   44.2103   53.8305 N   0  0  0  0  0  0  0  0  0  3  0  0
   37.3729   43.6115   53.3446 C   0  0  0  0  0  0  0  0  0  4  0  0
   37.0820   43.5436   51.9823 O   0  0  0  0  0  0  0  0  0  5  0  0
   36.5048   43.0406   54.1807 N   0  0  0  0  0  0  0  0  0  6  0  0
   36.7168   43.0660   55.4943 C   0  0  0  0  0  0  0  0  0  7  0  0
   35.9099   42.5337   56.2948 O   0  0  0  0  0  0  0  0  0  8  0  0
   37.8447   43.6843   56.0489 C   0  0  0  0  0  0  0  0  0  9  0  0
   38.0684   43.6884   57.7745 S   0  0  1  0  0  6  0  0  0 10  0  0
   37.1321   44.6755   58.3810 O   0  0  0  0  0  0  0  0  0 11  0  0
   37.5301   42.3311   58.2721 O   0  0  0  0  0  0  0  0  0 12  0  0
   39.6697   43.7997   58.2663 N   0  0  0  0  0  0  0  0  0 13  0  0
   40.2138   44.2056   59.5005 C   0  0  0  0  0  0  0  0  0 14  0  0
   39.4818   44.7883   60.5077 C   0  0  0  0  0  0  0  0  0 15  0  0
   40.0658   45.1583   61.7233 C   0  0  0  0  0  0  0  0  0 16  0  0
   41.4051   44.9510   61.9584 C   0  0  0  0  0  0  0  0  0 17  0  0
   42.1522   44.3669   60.9572 C   0  0  0  0  0  0  0  0  0 18  0  0
   41.5724   44.0033   59.7589 C   0  0  0  0  0  0  0  0  0 19  0  0
   42.3541   43.4257   58.7923 F   0  0  0  0  0  0  0  0  0 20  0  0
  1  2  1  1
  2  3  1  0
  3  4  2  0
  4  5  1  0
  4  6  1  0
  6  7  1  0
  7  8  2  0
  7  9  1  0
  2  9  2  0
  9 10  1  0
 10 11  2  0
 10 12  2  0
 10 13  1  6
 13 14  1  0
 14 15  2  0
 15 16  1  0
 16 17  2  0
 17 18  1  0
 18 19  2  0
 14 19  1  0
 19 20  1  0
M  END
>  <fitscore>  (36) 
0.198597

$$$$
sQC_Substrate__STL420760_rank_36
     RDKit          3D

 20 21  0  0  0  0  0  0  0  0999 V2000
   36.4609   45.3271   57.1794 C   0  0  0  0  0  0  0  0  0  1  0  0
   37.1587   45.2258   55.8815 C   0  0  0  0  0  0  0  0  0  2  0  0
   36.7275   46.1082   54.9257 N   0  0  0  0  0  0  0  0  0  3  0  0
   37.2617   46.1400   53.7059 C   0  0  0  0  0  0  0  0  0  4  0  0
   36.8456   47.0251   52.7117 O   0  0  0  0  0  0  0  0  0  5  0  0
   38.2445   45.2942   53.3942 N   0  0  0  0  0  0  0  0  0  6  0  0
   38.6933   44.4208   54.2926 C   0  0  0  0  0  0  0  0  0  7  0  0
   39.6175   43.6180   54.0155 O   0  0  0  0  0  0  0  0  0  8  0  0
   38.1612   44.3523   55.5864 C   0  0  0  0  0  0  0  0  0  9  0  0
   38.7862   43.1880   56.7185 S   0  0  1  0  0  6  0  0  0 10  0  0
   38.0378   41.9099   56.5603 O   0  0  0  0  0  0  0  0  0 11  0  0
   40.2040   42.8371   56.2220 O   0  0  0  0  0  0  0  0  0 12  0  0
   38.9361   43.7594   58.2899 N   0  0  0  0  0  0  0  0  0 13  0  0
   40.0774   43.8797   59.1068 C   0  0  0  0  0  0  0  0  0 14  0  0
   41.2974   44.3287   58.6599 C   0  0  0  0  0  0  0  0  0 15  0  0
   42.3972   44.4468   59.5156 C   0  0  0  0  0  0  0  0  0 16  0  0
   42.2982   44.1158   60.8470 C   0  0  0  0  0  0  0  0  0 17  0  0
   41.0801   43.6642   61.3098 C   0  0  0  0  0  0  0  0  0 18  0  0
   39.9972   43.5488   60.4623 C   0  0  0  0  0  0  0  0  0 19  0  0
   38.8059   43.0953   60.9666 F   0  0  0  0  0  0  0  0  0 20  0  0
  1  2  1  1
  2  3  1  0
  3  4  2  0
  4  5  1  0
  4  6  1  0
  6  7  1  0
  7  8  2  0
  7  9  1  0
  2  9  2  0
  9 10  1  0
 10 11  2  0
 10 12  2  0
 10 13  1  1
 13 14  1  0
 14 15  2  0
 15 16  1  0
 16 17  2  0
 17 18  1  0
 18 19  2  0
 14 19  1  0
 19 20  1  0
M  END
>  <fitscore>  (37) 
0.19712

$$$$
sQC_Substrate__STL420760_rank_37
     RDKit          3D

 20 21  0  0  0  0  0  0  0  0999 V2000
   40.5092   46.0094   54.7073 C   0  0  0  0  0  0  0  0  0  1  0  0
   39.3065   45.1703   54.5304 C   0  0  0  0  0  0  0  0  0  2  0  0
   38.4083   45.6391   53.6076 N   0  0  0  0  0  0  0  0  0  3  0  0
   37.2768   44.9912   53.3356 C   0  0  0  0  0  0  0  0  0  4  0  0
   36.3429   45.4415   52.4028 O   0  0  0  0  0  0  0  0  0  5  0  0
   36.9992   43.8529   53.9729 N   0  0  0  0  0  0  0  0  0  6  0  0
   37.8440   43.3623   54.8766 C   0  0  0  0  0  0  0  0  0  7  0  0
   37.5979   42.2925   55.4852 O   0  0  0  0  0  0  0  0  0  8  0  0
   39.0447   44.0101   55.1939 C   0  0  0  0  0  0  0  0  0  9  0  0
   40.1097   43.3228   56.3861 S   0  0  1  0  0  6  0  0  0 10  0  0
   40.0058   41.8380   56.3285 O   0  0  0  0  0  0  0  0  0 11  0  0
   41.5410   43.6018   55.8828 O   0  0  0  0  0  0  0  0  0 12  0  0
   39.9763   44.0079   57.9129 N   0  0  0  0  0  0  0  0  0 13  0  0
   39.6260   43.4197   59.1440 C   0  0  0  0  0  0  0  0  0 14  0  0
   40.2875   42.3503   59.6996 C   0  0  0  0  0  0  0  0  0 15  0  0
   39.9114   41.8126   60.9346 C   0  0  0  0  0  0  0  0  0 16  0  0
   38.8574   42.3382   61.6452 C   0  0  0  0  0  0  0  0  0 17  0  0
   38.1846   43.4116   61.1003 C   0  0  0  0  0  0  0  0  0 18  0  0
   38.5585   43.9394   59.8813 C   0  0  0  0  0  0  0  0  0 19  0  0
   37.8605   45.0067   59.3787 F   0  0  0  0  0  0  0  0  0 20  0  0
  1  2  1  1
  2  3  1  0
  3  4  2  0
  4  5  1  0
  4  6  1  0
  6  7  1  0
  7  8  2  0
  7  9  1  0
  2  9  2  0
  9 10  1  0
 10 11  2  0
 10 12  2  0
 10 13  1  1
 13 14  1  0
 14 15  2  0
 15 16  1  0
 16 17  2  0
 17 18  1  0
 18 19  2  0
 14 19  1  0
 19 20  1  0
M  END
>  <fitscore>  (38) 
0.183352

$$$$
sQC_Substrate__STL420760_rank_38
     RDKit          3D

 20 21  0  0  0  0  0  0  0  0999 V2000
   39.7931   46.1435   55.2941 C   0  0  0  0  0  0  0  0  0  1  0  0
   38.9864   44.9507   54.9652 C   0  0  0  0  0  0  0  0  0  2  0  0
   39.0227   44.5768   53.6472 N   0  0  0  0  0  0  0  0  0  3  0  0
   38.3486   43.5197   53.1974 C   0  0  0  0  0  0  0  0  0  4  0  0
   38.3648   43.1135   51.8633 O   0  0  0  0  0  0  0  0  0  5  0  0
   37.6142   42.7969   54.0441 N   0  0  0  0  0  0  0  0  0  6  0  0
   37.5512   43.1250   55.3323 C   0  0  0  0  0  0  0  0  0  7  0  0
   36.8648   42.4554   56.1423 O   0  0  0  0  0  0  0  0  0  8  0  0
   38.2432   44.2279   55.8486 C   0  0  0  0  0  0  0  0  0  9  0  0
   38.1214   44.6106   57.5417 S   0  0  1  0  0  6  0  0  0 10  0  0
   38.6220   45.9963   57.7613 O   0  0  0  0  0  0  0  0  0 11  0  0
   36.6122   44.7232   57.8404 O   0  0  0  0  0  0  0  0  0 12  0  0
   38.7454   43.4354   58.5653 N   0  0  0  0  0  0  0  0  0 13  0  0
   39.8925   43.4600   59.3825 C   0  0  0  0  0  0  0  0  0 14  0  0
   39.8889   43.8565   60.6988 C   0  0  0  0  0  0  0  0  0 15  0  0
   41.0527   43.8465   61.4741 C   0  0  0  0  0  0  0  0  0 16  0  0
   42.2538   43.4358   60.9445 C   0  0  0  0  0  0  0  0  0 17  0  0
   42.2727   43.0347   59.6251 C   0  0  0  0  0  0  0  0  0 18  0  0
   41.1222   43.0462   58.8631 C   0  0  0  0  0  0  0  0  0 19  0  0
   41.1887   42.6388   57.5559 F   0  0  0  0  0  0  0  0  0 20  0  0
  1  2  1  1
  2  3  1  0
  3  4  2  0
  4  5  1  0
  4  6  1  0
  6  7  1  0
  7  8  2  0
  7  9  1  0
  2  9  2  0
  9 10  1  0
 10 11  2  0
 10 12  2  0
 10 13  1  1
 13 14  1  0
 14 15  2  0
 15 16  1  0
 16 17  2  0
 17 18  1  0
 18 19  2  0
 14 19  1  0
 19 20  1  0
M  END
>  <fitscore>  (39) 
0.163194

$$$$
sQC_Substrate__STL420760_rank_39
     RDKit          3D

 20 21  0  0  0  0  0  0  0  0999 V2000
   35.7502   43.1053   57.2593 C   0  0  0  0  0  0  0  0  0  1  0  0
   36.4107   43.6890   56.0741 C   0  0  0  0  0  0  0  0  0  2  0  0
   35.8426   43.3508   54.8736 N   0  0  0  0  0  0  0  0  0  3  0  0
   36.3241   43.8010   53.7162 C   0  0  0  0  0  0  0  0  0  4  0  0
   35.7694   43.4756   52.4788 O   0  0  0  0  0  0  0  0  0  5  0  0
   37.3887   44.6043   53.7127 N   0  0  0  0  0  0  0  0  0  6  0  0
   37.9711   44.9576   54.8561 C   0  0  0  0  0  0  0  0  0  7  0  0
   38.9736   45.7128   54.8704 O   0  0  0  0  0  0  0  0  0  8  0  0
   37.4987   44.5080   56.0957 C   0  0  0  0  0  0  0  0  0  9  0  0
   38.3022   45.0010   57.5583 S   0  0  1  0  0  6  0  0  0 10  0  0
   38.8165   46.3880   57.3834 O   0  0  0  0  0  0  0  0  0 11  0  0
   37.1907   45.1614   58.6158 O   0  0  0  0  0  0  0  0  0 12  0  0
   39.4014   43.8822   58.1570 N   0  0  0  0  0  0  0  0  0 13  0  0
   40.8076   43.9356   58.2196 C   0  0  0  0  0  0  0  0  0 14  0  0
   41.5775   44.7923   57.4692 C   0  0  0  0  0  0  0  0  0 15  0  0
   42.9712   44.8191   57.5805 C   0  0  0  0  0  0  0  0  0 16  0  0
   43.6290   43.9827   58.4522 C   0  0  0  0  0  0  0  0  0 17  0  0
   42.8696   43.1178   59.2119 C   0  0  0  0  0  0  0  0  0 18  0  0
   41.4944   43.0942   59.0992 C   0  0  0  0  0  0  0  0  0 19  0  0
   40.7806   42.2177   59.8747 F   0  0  0  0  0  0  0  0  0 20  0  0
  1  2  1  1
  2  3  1  0
  3  4  2  0
  4  5  1  0
  4  6  1  0
  6  7  1  0
  7  8  2  0
  7  9  1  0
  2  9  2  0
  9 10  1  0
 10 11  2  0
 10 12  2  0
 10 13  1  1
 13 14  1  0
 14 15  2  0
 15 16  1  0
 16 17  2  0
 17 18  1  0
 18 19  2  0
 14 19  1  0
 19 20  1  0
M  END
>  <fitscore>  (40) 
0.14892

$$$$
