sQC_Substrate__STK674854_rank_0
     RDKit          3D

 19 19  0  0  0  0  0  0  0  0999 V2000
   37.8111   45.2361   52.4797 O   0  0  0  0  0  0  0  0  0  1  0  0
   37.3298   45.5283   53.7407 C   0  0  0  0  0  0  0  0  0  2  0  0
   37.0310   46.7401   53.9574 O   0  0  0  0  0  0  0  0  0  3  0  0
   37.1714   44.5079   54.7691 C   0  0  0  0  0  0  0  0  0  4  0  0
   37.6816   44.6377   55.9689 C   0  0  0  0  0  0  0  0  0  5  0  0
   37.6095   43.6692   57.0434 C   0  0  0  0  0  0  0  0  0  6  0  0
   36.6650   42.8068   57.0189 O   0  0  0  0  0  0  0  0  0  7  0  0
   38.5468   43.6047   58.1652 C   0  0  0  0  0  0  0  0  0  8  0  0
   39.7686   42.9902   58.0152 C   0  0  0  0  0  0  0  0  0  9  0  0
   40.1649   42.4021   56.8031 O   0  0  0  0  0  0  0  0  0 10  0  0
   40.6518   42.9382   59.0808 C   0  0  0  0  0  0  0  0  0 11  0  0
   41.8603   42.3190   58.8986 F   0  0  0  0  0  0  0  0  0 12  0  0
   40.3508   43.4819   60.2920 C   0  0  0  0  0  0  0  0  0 13  0  0
   39.1358   44.1002   60.4627 C   0  0  0  0  0  0  0  0  0 14  0  0
   38.2423   44.1551   59.3915 C   0  0  0  0  0  0  0  0  0 15  0  0
   37.0366   44.7638   59.5462 F   0  0  0  0  0  0  0  0  0 16  0  0
   38.7907   44.6530   61.6399 F   0  0  0  0  0  0  0  0  0 17  0  0
   41.2583   43.4026   61.3095 F   0  0  0  0  0  0  0  0  0 18  0  0
   36.4374   43.3427   54.4432 N   0  0  0  0  0  0  0  0  0 19  0  0
  1  2  1  0
  2  3  2  0
  2  4  1  0
  4  5  2  0
  5  6  1  0
  6  7  2  0
  6  8  1  0
  8  9  2  0
  9 10  1  0
  9 11  1  0
 11 12  1  0
 11 13  2  0
 13 14  1  0
 14 15  2  0
  8 15  1  0
 15 16  1  0
 14 17  1  0
 13 18  1  0
  4 19  1  0
M  END
>  <fitscore>  (1) 
0.427787

$$$$
sQC_Substrate__STK674854_rank_1
     RDKit          3D

 19 19  0  0  0  0  0  0  0  0999 V2000
   37.7920   44.3028   52.5054 O   0  0  0  0  0  0  0  0  0  1  0  0
   37.2408   44.7252   53.6991 C   0  0  0  0  0  0  0  0  0  2  0  0
   36.4402   45.7044   53.6289 O   0  0  0  0  0  0  0  0  0  3  0  0
   37.5561   44.0874   54.9710 C   0  0  0  0  0  0  0  0  0  4  0  0
   38.1856   44.7164   55.9327 C   0  0  0  0  0  0  0  0  0  5  0  0
   37.8550   44.6830   57.3425 C   0  0  0  0  0  0  0  0  0  6  0  0
   36.6217   44.6053   57.6735 O   0  0  0  0  0  0  0  0  0  7  0  0
   38.8376   44.7322   58.4255 C   0  0  0  0  0  0  0  0  0  8  0  0
   39.9002   43.8584   58.4396 C   0  0  0  0  0  0  0  0  0  9  0  0
   40.0862   42.8925   57.4372 O   0  0  0  0  0  0  0  0  0 10  0  0
   40.8286   43.9152   59.4659 C   0  0  0  0  0  0  0  0  0 11  0  0
   41.8751   43.0311   59.4506 F   0  0  0  0  0  0  0  0  0 12  0  0
   40.7270   44.8192   60.4786 C   0  0  0  0  0  0  0  0  0 13  0  0
   39.6732   45.7007   60.4833 C   0  0  0  0  0  0  0  0  0 14  0  0
   38.7350   45.6472   59.4510 C   0  0  0  0  0  0  0  0  0 15  0  0
   37.6873   46.5134   59.4429 F   0  0  0  0  0  0  0  0  0 16  0  0
   39.5279   46.6132   61.4615 F   0  0  0  0  0  0  0  0  0 17  0  0
   41.6703   44.8322   61.4662 F   0  0  0  0  0  0  0  0  0 18  0  0
   37.1608   42.7414   55.1567 N   0  0  0  0  0  0  0  0  0 19  0  0
  1  2  1  0
  2  3  2  0
  2  4  1  0
  4  5  2  0
  5  6  1  0
  6  7  2  0
  6  8  1  0
  8  9  2  0
  9 10  1  0
  9 11  1  0
 11 12  1  0
 11 13  2  0
 13 14  1  0
 14 15  2  0
  8 15  1  0
 15 16  1  0
 14 17  1  0
 13 18  1  0
  4 19  1  0
M  END
>  <fitscore>  (2) 
0.388822

$$$$
sQC_Substrate__STK674854_rank_2
     RDKit          3D

 19 19  0  0  0  0  0  0  0  0999 V2000
   37.1400   44.6020   52.5686 O   0  0  0  0  0  0  0  0  0  1  0  0
   37.6598   44.9972   53.7855 C   0  0  0  0  0  0  0  0  0  2  0  0
   38.5255   45.9213   53.7493 O   0  0  0  0  0  0  0  0  0  3  0  0
   37.2425   44.3917   55.0437 C   0  0  0  0  0  0  0  0  0  4  0  0
   37.8366   44.6592   56.1806 C   0  0  0  0  0  0  0  0  0  5  0  0
   37.4171   44.2176   57.4947 C   0  0  0  0  0  0  0  0  0  6  0  0
   36.1641   44.0925   57.7201 O   0  0  0  0  0  0  0  0  0  7  0  0
   38.3305   43.9012   58.5932 C   0  0  0  0  0  0  0  0  0  8  0  0
   39.5749   43.3756   58.3325 C   0  0  0  0  0  0  0  0  0  9  0  0
   40.0177   43.1176   57.0250 O   0  0  0  0  0  0  0  0  0 10  0  0
   40.4351   43.0838   59.3781 C   0  0  0  0  0  0  0  0  0 11  0  0
   41.6672   42.5613   59.0847 F   0  0  0  0  0  0  0  0  0 12  0  0
   40.0891   43.3016   60.6766 C   0  0  0  0  0  0  0  0  0 13  0  0
   38.8508   43.8259   60.9584 C   0  0  0  0  0  0  0  0  0 14  0  0
   37.9804   44.1216   59.9079 C   0  0  0  0  0  0  0  0  0 15  0  0
   36.7521   44.6408   60.1722 F   0  0  0  0  0  0  0  0  0 16  0  0
   38.4612   44.0597   62.2250 F   0  0  0  0  0  0  0  0  0 17  0  0
   40.9755   42.9960   61.6695 F   0  0  0  0  0  0  0  0  0 18  0  0
   36.1556   43.4859   55.0183 N   0  0  0  0  0  0  0  0  0 19  0  0
  1  2  1  0
  2  3  2  0
  2  4  1  0
  4  5  2  0
  5  6  1  0
  6  7  2  0
  6  8  1  0
  8  9  2  0
  9 10  1  0
  9 11  1  0
 11 12  1  0
 11 13  2  0
 13 14  1  0
 14 15  2  0
  8 15  1  0
 15 16  1  0
 14 17  1  0
 13 18  1  0
  4 19  1  0
M  END
>  <fitscore>  (3) 
0.364537

$$$$
sQC_Substrate__STK674854_rank_3
     RDKit          3D

 19 19  0  0  0  0  0  0  0  0999 V2000
   38.2974   44.6584   52.4541 O   0  0  0  0  0  0  0  0  0  1  0  0
   37.3617   44.9662   53.4219 C   0  0  0  0  0  0  0  0  0  2  0  0
   36.4542   45.7820   53.0818 O   0  0  0  0  0  0  0  0  0  3  0  0
   37.4076   44.3906   54.7600 C   0  0  0  0  0  0  0  0  0  4  0  0
   38.3730   44.6580   55.6046 C   0  0  0  0  0  0  0  0  0  5  0  0
   38.5135   44.1288   56.9456 C   0  0  0  0  0  0  0  0  0  6  0  0
   37.5971   43.3548   57.3902 O   0  0  0  0  0  0  0  0  0  7  0  0
   39.6375   44.4176   57.8368 C   0  0  0  0  0  0  0  0  0  8  0  0
   40.1225   43.4452   58.6807 C   0  0  0  0  0  0  0  0  0  9  0  0
   39.5694   42.1553   58.7299 O   0  0  0  0  0  0  0  0  0 10  0  0
   41.1900   43.7256   59.5174 C   0  0  0  0  0  0  0  0  0 11  0  0
   41.6491   42.7355   60.3456 F   0  0  0  0  0  0  0  0  0 12  0  0
   41.7876   44.9486   59.5361 C   0  0  0  0  0  0  0  0  0 13  0  0
   41.3184   45.9336   58.7010 C   0  0  0  0  0  0  0  0  0 14  0  0
   40.2426   45.6557   57.8560 C   0  0  0  0  0  0  0  0  0 15  0  0
   39.7681   46.6208   57.0244 F   0  0  0  0  0  0  0  0  0 16  0  0
   41.8745   47.1588   58.6817 F   0  0  0  0  0  0  0  0  0 17  0  0
   42.8373   45.1719   60.3809 F   0  0  0  0  0  0  0  0  0 18  0  0
   36.3647   43.5146   55.1439 N   0  0  0  0  0  0  0  0  0 19  0  0
  1  2  1  0
  2  3  2  0
  2  4  1  0
  4  5  2  0
  5  6  1  0
  6  7  2  0
  6  8  1  0
  8  9  2  0
  9 10  1  0
  9 11  1  0
 11 12  1  0
 11 13  2  0
 13 14  1  0
 14 15  2  0
  8 15  1  0
 15 16  1  0
 14 17  1  0
 13 18  1  0
  4 19  1  0
M  END
>  <fitscore>  (4) 
0.363048

$$$$
sQC_Substrate__STK674854_rank_4
     RDKit          3D

 19 19  0  0  0  0  0  0  0  0999 V2000
   37.3330   45.5932   52.4555 O   0  0  0  0  0  0  0  0  0  1  0  0
   38.1398   45.3925   53.5581 C   0  0  0  0  0  0  0  0  0  2  0  0
   39.3205   45.8440   53.4757 O   0  0  0  0  0  0  0  0  0  3  0  0
   37.6687   44.7021   54.7520 C   0  0  0  0  0  0  0  0  0  4  0  0
   38.0425   45.0537   55.9576 C   0  0  0  0  0  0  0  0  0  5  0  0
   37.5707   44.4861   57.2039 C   0  0  0  0  0  0  0  0  0  6  0  0
   36.3167   44.2696   57.3343 O   0  0  0  0  0  0  0  0  0  7  0  0
   38.4319   44.1392   58.3349 C   0  0  0  0  0  0  0  0  0  8  0  0
   39.5243   43.3232   58.1516 C   0  0  0  0  0  0  0  0  0  9  0  0
   39.8560   42.7903   56.8953 O   0  0  0  0  0  0  0  0  0 10  0  0
   40.3371   43.0041   59.2267 C   0  0  0  0  0  0  0  0  0 11  0  0
   41.4171   42.1892   59.0106 F   0  0  0  0  0  0  0  0  0 12  0  0
   40.0908   43.4758   60.4797 C   0  0  0  0  0  0  0  0  0 13  0  0
   39.0049   44.2921   60.6841 C   0  0  0  0  0  0  0  0  0 14  0  0
   38.1828   44.6166   59.6036 C   0  0  0  0  0  0  0  0  0 15  0  0
   37.1048   45.4233   59.7913 F   0  0  0  0  0  0  0  0  0 16  0  0
   38.7185   44.7842   61.9033 F   0  0  0  0  0  0  0  0  0 17  0  0
   40.9245   43.1300   61.5048 F   0  0  0  0  0  0  0  0  0 18  0  0
   36.7764   43.6166   54.5847 N   0  0  0  0  0  0  0  0  0 19  0  0
  1  2  1  0
  2  3  2  0
  2  4  1  0
  4  5  2  0
  5  6  1  0
  6  7  2  0
  6  8  1  0
  8  9  2  0
  9 10  1  0
  9 11  1  0
 11 12  1  0
 11 13  2  0
 13 14  1  0
 14 15  2  0
  8 15  1  0
 15 16  1  0
 14 17  1  0
 13 18  1  0
  4 19  1  0
M  END
>  <fitscore>  (5) 
0.355869

$$$$
sQC_Substrate__STK674854_rank_5
     RDKit          3D

 19 19  0  0  0  0  0  0  0  0999 V2000
   38.2583   47.2688   53.5732 O   0  0  0  0  0  0  0  0  0  1  0  0
   37.2333   46.3922   53.8701 C   0  0  0  0  0  0  0  0  0  2  0  0
   36.1290   46.6063   53.2877 O   0  0  0  0  0  0  0  0  0  3  0  0
   37.4032   45.2819   54.7988 C   0  0  0  0  0  0  0  0  0  4  0  0
   38.5844   44.8652   55.1834 C   0  0  0  0  0  0  0  0  0  5  0  0
   38.8626   43.6949   55.9902 C   0  0  0  0  0  0  0  0  0  6  0  0
   38.0641   42.6988   55.9079 O   0  0  0  0  0  0  0  0  0  7  0  0
   40.0009   43.5677   56.9009 C   0  0  0  0  0  0  0  0  0  8  0  0
   39.8140   43.1192   58.1880 C   0  0  0  0  0  0  0  0  0  9  0  0
   38.5455   42.7736   58.6817 O   0  0  0  0  0  0  0  0  0 10  0  0
   40.8977   42.9970   59.0418 C   0  0  0  0  0  0  0  0  0 11  0  0
   40.6778   42.5476   60.3172 F   0  0  0  0  0  0  0  0  0 12  0  0
   42.1628   43.3095   58.6478 C   0  0  0  0  0  0  0  0  0 13  0  0
   42.3710   43.7591   57.3664 C   0  0  0  0  0  0  0  0  0 14  0  0
   41.2817   43.8840   56.5023 C   0  0  0  0  0  0  0  0  0 15  0  0
   41.4731   44.3277   55.2316 F   0  0  0  0  0  0  0  0  0 16  0  0
   43.6019   44.0810   56.9286 F   0  0  0  0  0  0  0  0  0 17  0  0
   43.1960   43.1705   59.5302 F   0  0  0  0  0  0  0  0  0 18  0  0
   36.2410   44.6435   55.2927 N   0  0  0  0  0  0  0  0  0 19  0  0
  1  2  1  0
  2  3  2  0
  2  4  1  0
  4  5  2  0
  5  6  1  0
  6  7  2  0
  6  8  1  0
  8  9  2  0
  9 10  1  0
  9 11  1  0
 11 12  1  0
 11 13  2  0
 13 14  1  0
 14 15  2  0
  8 15  1  0
 15 16  1  0
 14 17  1  0
 13 18  1  0
  4 19  1  0
M  END
>  <fitscore>  (6) 
0.343734

$$$$
sQC_Substrate__STK674854_rank_6
     RDKit          3D

 19 19  0  0  0  0  0  0  0  0999 V2000
   36.8779   45.2837   51.9461 O   0  0  0  0  0  0  0  0  0  1  0  0
   37.2444   45.3569   53.2755 C   0  0  0  0  0  0  0  0  0  2  0  0
   36.4388   45.9607   54.0444 O   0  0  0  0  0  0  0  0  0  3  0  0
   38.4845   44.7760   53.7742 C   0  0  0  0  0  0  0  0  0  4  0  0
   38.5211   44.0083   54.8354 C   0  0  0  0  0  0  0  0  0  5  0  0
   39.7017   43.6375   55.5882 C   0  0  0  0  0  0  0  0  0  6  0  0
   40.8379   43.7039   55.0040 O   0  0  0  0  0  0  0  0  0  7  0  0
   39.6894   43.1884   56.9807 C   0  0  0  0  0  0  0  0  0  8  0  0
   38.5179   43.1942   57.7022 C   0  0  0  0  0  0  0  0  0  9  0  0
   37.3022   43.6280   57.1489 O   0  0  0  0  0  0  0  0  0 10  0  0
   38.5143   42.7626   59.0182 C   0  0  0  0  0  0  0  0  0 11  0  0
   37.3313   42.7809   59.7090 F   0  0  0  0  0  0  0  0  0 12  0  0
   39.6463   42.3252   59.6351 C   0  0  0  0  0  0  0  0  0 13  0  0
   40.8267   42.3114   58.9322 C   0  0  0  0  0  0  0  0  0 14  0  0
   40.8353   42.7456   57.6055 C   0  0  0  0  0  0  0  0  0 15  0  0
   41.9961   42.7374   56.8980 F   0  0  0  0  0  0  0  0  0 16  0  0
   41.9727   41.8885   59.4964 F   0  0  0  0  0  0  0  0  0 17  0  0
   39.5870   41.9104   60.9350 F   0  0  0  0  0  0  0  0  0 18  0  0
   39.6814   45.0613   53.0754 N   0  0  0  0  0  0  0  0  0 19  0  0
  1  2  1  0
  2  3  2  0
  2  4  1  0
  4  5  2  0
  5  6  1  0
  6  7  2  0
  6  8  1  0
  8  9  2  0
  9 10  1  0
  9 11  1  0
 11 12  1  0
 11 13  2  0
 13 14  1  0
 14 15  2  0
  8 15  1  0
 15 16  1  0
 14 17  1  0
 13 18  1  0
  4 19  1  0
M  END
>  <fitscore>  (7) 
0.330487

$$$$
sQC_Substrate__STK674854_rank_7
     RDKit          3D

 19 19  0  0  0  0  0  0  0  0999 V2000
   36.2687   45.8719   52.7287 O   0  0  0  0  0  0  0  0  0  1  0  0
   36.4825   46.0503   54.0813 C   0  0  0  0  0  0  0  0  0  2  0  0
   36.5630   47.2498   54.4805 O   0  0  0  0  0  0  0  0  0  3  0  0
   36.6093   44.9292   55.0038 C   0  0  0  0  0  0  0  0  0  4  0  0
   37.1829   45.0481   56.1758 C   0  0  0  0  0  0  0  0  0  5  0  0
   37.7760   43.9809   56.9551 C   0  0  0  0  0  0  0  0  0  6  0  0
   37.3077   42.7984   56.8178 O   0  0  0  0  0  0  0  0  0  7  0  0
   38.8820   44.1585   57.8966 C   0  0  0  0  0  0  0  0  0  8  0  0
   40.1134   43.6037   57.6344 C   0  0  0  0  0  0  0  0  0  9  0  0
   40.3617   42.8506   56.4753 O   0  0  0  0  0  0  0  0  0 10  0  0
   41.1561   43.7810   58.5285 C   0  0  0  0  0  0  0  0  0 11  0  0
   42.3698   43.2156   58.2380 F   0  0  0  0  0  0  0  0  0 12  0  0
   41.0053   44.4962   59.6770 C   0  0  0  0  0  0  0  0  0 13  0  0
   39.7836   45.0584   59.9577 C   0  0  0  0  0  0  0  0  0 14  0  0
   38.7296   44.8824   59.0595 C   0  0  0  0  0  0  0  0  0 15  0  0
   37.5152   45.4331   59.3244 F   0  0  0  0  0  0  0  0  0 16  0  0
   39.5832   45.7742   61.0794 F   0  0  0  0  0  0  0  0  0 17  0  0
   42.0667   44.6402   60.5244 F   0  0  0  0  0  0  0  0  0 18  0  0
   36.0887   43.6757   54.6035 N   0  0  0  0  0  0  0  0  0 19  0  0
  1  2  1  0
  2  3  2  0
  2  4  1  0
  4  5  2  0
  5  6  1  0
  6  7  2  0
  6  8  1  0
  8  9  2  0
  9 10  1  0
  9 11  1  0
 11 12  1  0
 11 13  2  0
 13 14  1  0
 14 15  2  0
  8 15  1  0
 15 16  1  0
 14 17  1  0
 13 18  1  0
  4 19  1  0
M  END
>  <fitscore>  (8) 
0.326076

$$$$
sQC_Substrate__STK674854_rank_8
     RDKit          3D

 19 19  0  0  0  0  0  0  0  0999 V2000
   36.0789   44.7101   53.2556 O   0  0  0  0  0  0  0  0  0  1  0  0
   36.6233   45.1375   54.4507 C   0  0  0  0  0  0  0  0  0  2  0  0
   36.7071   46.3914   54.6093 O   0  0  0  0  0  0  0  0  0  3  0  0
   37.0776   44.2067   55.4759 C   0  0  0  0  0  0  0  0  0  4  0  0
   37.7370   44.6013   56.5373 C   0  0  0  0  0  0  0  0  0  5  0  0
   38.2599   43.7538   57.5890 C   0  0  0  0  0  0  0  0  0  6  0  0
   37.4911   42.8593   58.0844 O   0  0  0  0  0  0  0  0  0  7  0  0
   39.6158   43.8470   58.1312 C   0  0  0  0  0  0  0  0  0  8  0  0
   39.8651   43.5079   59.4411 C   0  0  0  0  0  0  0  0  0  9  0  0
   38.8487   43.0695   60.3054 O   0  0  0  0  0  0  0  0  0 10  0  0
   41.1524   43.5942   59.9446 C   0  0  0  0  0  0  0  0  0 11  0  0
   41.3671   43.2493   61.2531 F   0  0  0  0  0  0  0  0  0 12  0  0
   42.1983   44.0092   59.1785 C   0  0  0  0  0  0  0  0  0 13  0  0
   41.9708   44.3525   57.8678 C   0  0  0  0  0  0  0  0  0 14  0  0
   40.6749   44.2671   57.3557 C   0  0  0  0  0  0  0  0  0 15  0  0
   40.4352   44.6036   56.0606 F   0  0  0  0  0  0  0  0  0 16  0  0
   42.9706   44.7686   57.0692 F   0  0  0  0  0  0  0  0  0 17  0  0
   43.4481   44.0760   59.7252 F   0  0  0  0  0  0  0  0  0 18  0  0
   36.7875   42.8326   55.3032 N   0  0  0  0  0  0  0  0  0 19  0  0
  1  2  1  0
  2  3  2  0
  2  4  1  0
  4  5  2  0
  5  6  1  0
  6  7  2  0
  6  8  1  0
  8  9  2  0
  9 10  1  0
  9 11  1  0
 11 12  1  0
 11 13  2  0
 13 14  1  0
 14 15  2  0
  8 15  1  0
 15 16  1  0
 14 17  1  0
 13 18  1  0
  4 19  1  0
M  END
>  <fitscore>  (9) 
0.318049

$$$$
sQC_Substrate__STK674854_rank_9
     RDKit          3D

 19 19  0  0  0  0  0  0  0  0999 V2000
   37.8439   47.2468   53.0282 O   0  0  0  0  0  0  0  0  0  1  0  0
   37.0654   46.3431   53.7241 C   0  0  0  0  0  0  0  0  0  2  0  0
   35.8258   46.5986   53.7774 O   0  0  0  0  0  0  0  0  0  3  0  0
   37.6287   45.1608   54.3634 C   0  0  0  0  0  0  0  0  0  4  0  0
   38.5618   45.2378   55.2801 C   0  0  0  0  0  0  0  0  0  5  0  0
   39.3903   44.1498   55.7574 C   0  0  0  0  0  0  0  0  0  6  0  0
   39.5009   43.1067   55.0251 O   0  0  0  0  0  0  0  0  0  7  0  0
   40.1165   44.1569   57.0277 C   0  0  0  0  0  0  0  0  0  8  0  0
   39.4327   44.0829   58.2192 C   0  0  0  0  0  0  0  0  0  9  0  0
   38.0315   44.0038   58.2725 O   0  0  0  0  0  0  0  0  0 10  0  0
   40.1283   44.0851   59.4169 C   0  0  0  0  0  0  0  0  0 11  0  0
   39.4176   44.0103   60.5858 F   0  0  0  0  0  0  0  0  0 12  0  0
   41.4869   44.1589   59.4596 C   0  0  0  0  0  0  0  0  0 13  0  0
   42.1887   44.2335   58.2809 C   0  0  0  0  0  0  0  0  0 14  0  0
   41.4920   44.2317   57.0713 C   0  0  0  0  0  0  0  0  0 15  0  0
   42.1735   44.3051   55.8973 F   0  0  0  0  0  0  0  0  0 16  0  0
   43.5322   44.3082   58.2694 F   0  0  0  0  0  0  0  0  0 17  0  0
   42.1232   44.1574   60.6681 F   0  0  0  0  0  0  0  0  0 18  0  0
   37.1388   43.8933   53.9686 N   0  0  0  0  0  0  0  0  0 19  0  0
  1  2  1  0
  2  3  2  0
  2  4  1  0
  4  5  2  0
  5  6  1  0
  6  7  2  0
  6  8  1  0
  8  9  2  0
  9 10  1  0
  9 11  1  0
 11 12  1  0
 11 13  2  0
 13 14  1  0
 14 15  2  0
  8 15  1  0
 15 16  1  0
 14 17  1  0
 13 18  1  0
  4 19  1  0
M  END
>  <fitscore>  (10) 
0.316773

$$$$
sQC_Substrate__STK674854_rank_10
     RDKit          3D

 19 19  0  0  0  0  0  0  0  0999 V2000
   37.3391   47.2984   53.8689 O   0  0  0  0  0  0  0  0  0  1  0  0
   36.5370   46.4519   54.6086 C   0  0  0  0  0  0  0  0  0  2  0  0
   35.3400   46.8279   54.7834 O   0  0  0  0  0  0  0  0  0  3  0  0
   37.0305   45.1965   55.1602 C   0  0  0  0  0  0  0  0  0  4  0  0
   38.2082   45.0950   55.7256 C   0  0  0  0  0  0  0  0  0  5  0  0
   38.6662   44.0106   56.5697 C   0  0  0  0  0  0  0  0  0  6  0  0
   37.8561   43.0518   56.8166 O   0  0  0  0  0  0  0  0  0  7  0  0
   40.0001   43.9312   57.1659 C   0  0  0  0  0  0  0  0  0  8  0  0
   40.2325   43.1045   58.2407 C   0  0  0  0  0  0  0  0  0  9  0  0
   39.2189   42.3162   58.8095 O   0  0  0  0  0  0  0  0  0 10  0  0
   41.4994   43.0316   58.7957 C   0  0  0  0  0  0  0  0  0 11  0  0
   41.6976   42.1987   59.8653 F   0  0  0  0  0  0  0  0  0 12  0  0
   42.5412   43.7601   58.3087 C   0  0  0  0  0  0  0  0  0 13  0  0
   42.3302   44.5919   57.2358 C   0  0  0  0  0  0  0  0  0 14  0  0
   41.0550   44.6687   56.6731 C   0  0  0  0  0  0  0  0  0 15  0  0
   40.8319   45.4876   55.6111 F   0  0  0  0  0  0  0  0  0 16  0  0
   43.3268   45.3327   56.7175 F   0  0  0  0  0  0  0  0  0 17  0  0
   43.7705   43.6506   58.8936 F   0  0  0  0  0  0  0  0  0 18  0  0
   36.1953   44.0575   55.0740 N   0  0  0  0  0  0  0  0  0 19  0  0
  1  2  1  0
  2  3  2  0
  2  4  1  0
  4  5  2  0
  5  6  1  0
  6  7  2  0
  6  8  1  0
  8  9  2  0
  9 10  1  0
  9 11  1  0
 11 12  1  0
 11 13  2  0
 13 14  1  0
 14 15  2  0
  8 15  1  0
 15 16  1  0
 14 17  1  0
 13 18  1  0
  4 19  1  0
M  END
>  <fitscore>  (11) 
0.287861

$$$$
sQC_Substrate__STK674854_rank_11
     RDKit          3D

 19 19  0  0  0  0  0  0  0  0999 V2000
   36.9381   45.3032   52.5229 O   0  0  0  0  0  0  0  0  0  1  0  0
   37.8064   45.1537   53.5863 C   0  0  0  0  0  0  0  0  0  2  0  0
   38.8785   45.8261   53.5305 O   0  0  0  0  0  0  0  0  0  3  0  0
   37.5146   44.2753   54.7119 C   0  0  0  0  0  0  0  0  0  4  0  0
   37.8439   44.5812   55.9427 C   0  0  0  0  0  0  0  0  0  5  0  0
   37.9913   43.6573   57.0484 C   0  0  0  0  0  0  0  0  0  6  0  0
   37.5495   42.4654   56.9046 O   0  0  0  0  0  0  0  0  0  7  0  0
   38.6145   43.9910   58.3296 C   0  0  0  0  0  0  0  0  0  8  0  0
   39.8530   43.4861   58.6521 C   0  0  0  0  0  0  0  0  0  9  0  0
   40.5626   42.6385   57.7859 O   0  0  0  0  0  0  0  0  0 10  0  0
   40.4378   43.8112   59.8647 C   0  0  0  0  0  0  0  0  0 11  0  0
   41.6718   43.2920   60.1555 F   0  0  0  0  0  0  0  0  0 12  0  0
   39.8219   44.6257   60.7651 C   0  0  0  0  0  0  0  0  0 13  0  0
   38.5846   45.1403   60.4624 C   0  0  0  0  0  0  0  0  0 14  0  0
   37.9912   44.8155   59.2413 C   0  0  0  0  0  0  0  0  0 15  0  0
   36.7672   45.3176   58.9286 F   0  0  0  0  0  0  0  0  0 16  0  0
   37.9345   45.9499   61.3182 F   0  0  0  0  0  0  0  0  0 17  0  0
   40.4433   44.9142   61.9466 F   0  0  0  0  0  0  0  0  0 18  0  0
   36.8514   43.0533   54.4483 N   0  0  0  0  0  0  0  0  0 19  0  0
  1  2  1  0
  2  3  2  0
  2  4  1  0
  4  5  2  0
  5  6  1  0
  6  7  2  0
  6  8  1  0
  8  9  2  0
  9 10  1  0
  9 11  1  0
 11 12  1  0
 11 13  2  0
 13 14  1  0
 14 15  2  0
  8 15  1  0
 15 16  1  0
 14 17  1  0
 13 18  1  0
  4 19  1  0
M  END
>  <fitscore>  (12) 
0.277773

$$$$
sQC_Substrate__STK674854_rank_12
     RDKit          3D

 19 19  0  0  0  0  0  0  0  0999 V2000
   40.1195   45.4640   53.3283 O   0  0  0  0  0  0  0  0  0  1  0  0
   38.7422   45.3967   53.2539 C   0  0  0  0  0  0  0  0  0  2  0  0
   38.2309   45.6537   52.1238 O   0  0  0  0  0  0  0  0  0  3  0  0
   37.9166   45.0508   54.4039 C   0  0  0  0  0  0  0  0  0  4  0  0
   38.4318   44.7440   55.5689 C   0  0  0  0  0  0  0  0  0  5  0  0
   37.6990   44.4707   56.7881 C   0  0  0  0  0  0  0  0  0  6  0  0
   36.4207   44.4926   56.7440 O   0  0  0  0  0  0  0  0  0  7  0  0
   38.3200   44.1687   58.0781 C   0  0  0  0  0  0  0  0  0  8  0  0
   39.2206   43.1347   58.1904 C   0  0  0  0  0  0  0  0  0  9  0  0
   39.5763   42.3317   57.0945 O   0  0  0  0  0  0  0  0  0 10  0  0
   39.8076   42.8590   59.4142 C   0  0  0  0  0  0  0  0  0 11  0  0
   40.7003   41.8226   59.4925 F   0  0  0  0  0  0  0  0  0 12  0  0
   39.5216   43.5856   60.5293 C   0  0  0  0  0  0  0  0  0 13  0  0
   38.6248   44.6224   60.4386 C   0  0  0  0  0  0  0  0  0 14  0  0
   38.0306   44.9041   59.2072 C   0  0  0  0  0  0  0  0  0 15  0  0
   37.1415   45.9272   59.1028 F   0  0  0  0  0  0  0  0  0 16  0  0
   38.3085   45.3705   61.5114 F   0  0  0  0  0  0  0  0  0 17  0  0
   40.1290   43.2712   61.7115 F   0  0  0  0  0  0  0  0  0 18  0  0
   36.5112   45.0518   54.2387 N   0  0  0  0  0  0  0  0  0 19  0  0
  1  2  1  0
  2  3  2  0
  2  4  1  0
  4  5  2  0
  5  6  1  0
  6  7  2  0
  6  8  1  0
  8  9  2  0
  9 10  1  0
  9 11  1  0
 11 12  1  0
 11 13  2  0
 13 14  1  0
 14 15  2  0
  8 15  1  0
 15 16  1  0
 14 17  1  0
 13 18  1  0
  4 19  1  0
M  END
>  <fitscore>  (13) 
0.271737

$$$$
sQC_Substrate__STK674854_rank_13
     RDKit          3D

 19 19  0  0  0  0  0  0  0  0999 V2000
   36.9933   45.4714   52.7237 O   0  0  0  0  0  0  0  0  0  1  0  0
   37.4890   44.8513   53.8536 C   0  0  0  0  0  0  0  0  0  2  0  0
   38.7495   44.7491   53.9270 O   0  0  0  0  0  0  0  0  0  3  0  0
   36.6197   44.3407   54.9060 C   0  0  0  0  0  0  0  0  0  4  0  0
   37.0484   44.1251   56.1253 C   0  0  0  0  0  0  0  0  0  5  0  0
   38.1369   44.8131   56.7883 C   0  0  0  0  0  0  0  0  0  6  0  0
   38.5748   45.8966   56.2679 O   0  0  0  0  0  0  0  0  0  7  0  0
   38.7782   44.3550   58.0212 C   0  0  0  0  0  0  0  0  0  8  0  0
   39.5749   43.2334   58.0146 C   0  0  0  0  0  0  0  0  0  9  0  0
   39.8023   42.4858   56.8477 O   0  0  0  0  0  0  0  0  0 10  0  0
   40.1821   42.8097   59.1850 C   0  0  0  0  0  0  0  0  0 11  0  0
   40.9693   41.6891   59.1446 F   0  0  0  0  0  0  0  0  0 12  0  0
   40.0171   43.4733   60.3621 C   0  0  0  0  0  0  0  0  0 13  0  0
   39.2255   44.5958   60.3903 C   0  0  0  0  0  0  0  0  0 14  0  0
   38.6113   45.0267   59.2131 C   0  0  0  0  0  0  0  0  0 15  0  0
   37.8253   46.1358   59.2263 F   0  0  0  0  0  0  0  0  0 16  0  0
   39.0307   45.2869   61.5283 F   0  0  0  0  0  0  0  0  0 17  0  0
   40.6391   43.0124   61.4873 F   0  0  0  0  0  0  0  0  0 18  0  0
   35.2682   44.0743   54.5822 N   0  0  0  0  0  0  0  0  0 19  0  0
  1  2  1  0
  2  3  2  0
  2  4  1  0
  4  5  2  0
  5  6  1  0
  6  7  2  0
  6  8  1  0
  8  9  2  0
  9 10  1  0
  9 11  1  0
 11 12  1  0
 11 13  2  0
 13 14  1  0
 14 15  2  0
  8 15  1  0
 15 16  1  0
 14 17  1  0
 13 18  1  0
  4 19  1  0
M  END
>  <fitscore>  (14) 
0.262673

$$$$
sQC_Substrate__STK674854_rank_14
     RDKit          3D

 19 19  0  0  0  0  0  0  0  0999 V2000
   35.8064   45.3117   52.9317 O   0  0  0  0  0  0  0  0  0  1  0  0
   36.7760   45.7664   53.8035 C   0  0  0  0  0  0  0  0  0  2  0  0
   37.7807   46.3300   53.2767 O   0  0  0  0  0  0  0  0  0  3  0  0
   36.6586   45.6113   55.2478 C   0  0  0  0  0  0  0  0  0  4  0  0
   37.6976   45.6641   56.0446 C   0  0  0  0  0  0  0  0  0  5  0  0
   37.6943   45.4507   57.4772 C   0  0  0  0  0  0  0  0  0  6  0  0
   36.6176   45.6950   58.1233 O   0  0  0  0  0  0  0  0  0  7  0  0
   38.8433   44.9715   58.2462 C   0  0  0  0  0  0  0  0  0  8  0  0
   39.2455   43.6594   58.1495 C   0  0  0  0  0  0  0  0  0  9  0  0
   38.5822   42.7335   57.3279 O   0  0  0  0  0  0  0  0  0 10  0  0
   40.3373   43.2155   58.8770 C   0  0  0  0  0  0  0  0  0 11  0  0
   40.7121   41.9031   58.7585 F   0  0  0  0  0  0  0  0  0 12  0  0
   41.0393   44.0436   59.6984 C   0  0  0  0  0  0  0  0  0 13  0  0
   40.6540   45.3577   59.8091 C   0  0  0  0  0  0  0  0  0 14  0  0
   39.5542   45.8097   59.0778 C   0  0  0  0  0  0  0  0  0 15  0  0
   39.1618   47.1075   59.1777 F   0  0  0  0  0  0  0  0  0 16  0  0
   41.3147   46.2163   60.6072 F   0  0  0  0  0  0  0  0  0 17  0  0
   42.1083   43.5543   60.3934 F   0  0  0  0  0  0  0  0  0 18  0  0
   35.3700   45.3973   55.7918 N   0  0  0  0  0  0  0  0  0 19  0  0
  1  2  1  0
  2  3  2  0
  2  4  1  0
  4  5  2  0
  5  6  1  0
  6  7  2  0
  6  8  1  0
  8  9  2  0
  9 10  1  0
  9 11  1  0
 11 12  1  0
 11 13  2  0
 13 14  1  0
 14 15  2  0
  8 15  1  0
 15 16  1  0
 14 17  1  0
 13 18  1  0
  4 19  1  0
M  END
>  <fitscore>  (15) 
0.258111

$$$$
sQC_Substrate__STK674854_rank_15
     RDKit          3D

 19 19  0  0  0  0  0  0  0  0999 V2000
   37.6496   44.4463   52.0307 O   0  0  0  0  0  0  0  0  0  1  0  0
   36.9002   45.0537   53.0189 C   0  0  0  0  0  0  0  0  0  2  0  0
   36.1992   46.0453   52.6581 O   0  0  0  0  0  0  0  0  0  3  0  0
   36.9089   44.5878   54.3997 C   0  0  0  0  0  0  0  0  0  4  0  0
   38.0189   44.4240   55.0765 C   0  0  0  0  0  0  0  0  0  5  0  0
   38.1295   44.1665   56.4975 C   0  0  0  0  0  0  0  0  0  6  0  0
   37.0569   43.9412   57.1574 O   0  0  0  0  0  0  0  0  0  7  0  0
   39.3901   44.1451   57.2401 C   0  0  0  0  0  0  0  0  0  8  0  0
   39.5318   43.3380   58.3453 C   0  0  0  0  0  0  0  0  0  9  0  0
   38.4915   42.5157   58.8078 O   0  0  0  0  0  0  0  0  0 10  0  0
   40.7302   43.3201   59.0393 C   0  0  0  0  0  0  0  0  0 11  0  0
   40.8387   42.5055   60.1355 F   0  0  0  0  0  0  0  0  0 12  0  0
   41.7915   44.0846   58.6621 C   0  0  0  0  0  0  0  0  0 13  0  0
   41.6708   44.8976   57.5612 C   0  0  0  0  0  0  0  0  0 14  0  0
   40.4648   44.9190   56.8585 C   0  0  0  0  0  0  0  0  0 15  0  0
   40.3312   45.7187   55.7672 F   0  0  0  0  0  0  0  0  0 16  0  0
   42.6903   45.6723   57.1476 F   0  0  0  0  0  0  0  0  0 17  0  0
   42.9507   44.0289   59.3822 F   0  0  0  0  0  0  0  0  0 18  0  0
   35.6661   44.3077   55.0156 N   0  0  0  0  0  0  0  0  0 19  0  0
  1  2  1  0
  2  3  2  0
  2  4  1  0
  4  5  2  0
  5  6  1  0
  6  7  2  0
  6  8  1  0
  8  9  2  0
  9 10  1  0
  9 11  1  0
 11 12  1  0
 11 13  2  0
 13 14  1  0
 14 15  2  0
  8 15  1  0
 15 16  1  0
 14 17  1  0
 13 18  1  0
  4 19  1  0
M  END
>  <fitscore>  (16) 
0.249201

$$$$
sQC_Substrate__STK674854_rank_16
     RDKit          3D

 19 19  0  0  0  0  0  0  0  0999 V2000
   37.4544   45.4268   52.0491 O   0  0  0  0  0  0  0  0  0  1  0  0
   37.6727   45.5214   53.4094 C   0  0  0  0  0  0  0  0  0  2  0  0
   37.0764   46.4664   54.0063 O   0  0  0  0  0  0  0  0  0  3  0  0
   38.5375   44.5922   54.1255 C   0  0  0  0  0  0  0  0  0  4  0  0
   39.2128   44.9441   55.1917 C   0  0  0  0  0  0  0  0  0  5  0  0
   40.0534   44.0846   55.9996 C   0  0  0  0  0  0  0  0  0  6  0  0
   41.0432   43.5023   55.4359 O   0  0  0  0  0  0  0  0  0  7  0  0
   39.8510   43.8315   57.4265 C   0  0  0  0  0  0  0  0  0  8  0  0
   38.5789   43.7317   57.9408 C   0  0  0  0  0  0  0  0  0  9  0  0
   37.4355   43.8705   57.1372 O   0  0  0  0  0  0  0  0  0 10  0  0
   38.3964   43.4869   59.2917 C   0  0  0  0  0  0  0  0  0 11  0  0
   37.1168   43.3931   59.7722 F   0  0  0  0  0  0  0  0  0 12  0  0
   39.4473   43.3387   60.1443 C   0  0  0  0  0  0  0  0  0 13  0  0
   40.7259   43.4347   59.6509 C   0  0  0  0  0  0  0  0  0 14  0  0
   40.9147   43.6814   58.2900 C   0  0  0  0  0  0  0  0  0 15  0  0
   42.1744   43.7789   57.7880 F   0  0  0  0  0  0  0  0  0 16  0  0
   41.7979   43.2960   60.4522 F   0  0  0  0  0  0  0  0  0 17  0  0
   39.2112   43.0985   61.4679 F   0  0  0  0  0  0  0  0  0 18  0  0
   38.6391   43.2675   53.6384 N   0  0  0  0  0  0  0  0  0 19  0  0
  1  2  1  0
  2  3  2  0
  2  4  1  0
  4  5  2  0
  5  6  1  0
  6  7  2  0
  6  8  1  0
  8  9  2  0
  9 10  1  0
  9 11  1  0
 11 12  1  0
 11 13  2  0
 13 14  1  0
 14 15  2  0
  8 15  1  0
 15 16  1  0
 14 17  1  0
 13 18  1  0
  4 19  1  0
M  END
>  <fitscore>  (17) 
0.247638

$$$$
sQC_Substrate__STK674854_rank_17
     RDKit          3D

 19 19  0  0  0  0  0  0  0  0999 V2000
   36.2924   46.4200   54.7514 O   0  0  0  0  0  0  0  0  0  1  0  0
   36.8351   45.4971   53.8791 C   0  0  0  0  0  0  0  0  0  2  0  0
   36.3027   45.4332   52.7315 O   0  0  0  0  0  0  0  0  0  3  0  0
   37.9557   44.6419   54.2488 C   0  0  0  0  0  0  0  0  0  4  0  0
   38.5051   44.6824   55.4377 C   0  0  0  0  0  0  0  0  0  5  0  0
   39.3914   43.6898   56.0097 C   0  0  0  0  0  0  0  0  0  6  0  0
   40.0024   42.8943   55.2157 O   0  0  0  0  0  0  0  0  0  7  0  0
   39.6411   43.5292   57.4425 C   0  0  0  0  0  0  0  0  0  8  0  0
   38.6053   43.6237   58.3430 C   0  0  0  0  0  0  0  0  0  9  0  0
   37.2849   43.8790   57.9385 O   0  0  0  0  0  0  0  0  0 10  0  0
   38.8498   43.4652   59.6970 C   0  0  0  0  0  0  0  0  0 11  0  0
   37.7966   43.5652   60.5676 F   0  0  0  0  0  0  0  0  0 12  0  0
   40.0984   43.2151   60.1783 C   0  0  0  0  0  0  0  0  0 13  0  0
   41.1466   43.1170   59.2956 C   0  0  0  0  0  0  0  0  0 14  0  0
   40.9052   43.2760   57.9299 C   0  0  0  0  0  0  0  0  0 15  0  0
   41.9330   43.1815   57.0452 F   0  0  0  0  0  0  0  0  0 16  0  0
   42.3994   42.8711   59.7208 F   0  0  0  0  0  0  0  0  0 17  0  0
   40.2841   43.0673   61.5232 F   0  0  0  0  0  0  0  0  0 18  0  0
   38.4549   43.7419   53.2777 N   0  0  0  0  0  0  0  0  0 19  0  0
  1  2  1  0
  2  3  2  0
  2  4  1  0
  4  5  2  0
  5  6  1  0
  6  7  2  0
  6  8  1  0
  8  9  2  0
  9 10  1  0
  9 11  1  0
 11 12  1  0
 11 13  2  0
 13 14  1  0
 14 15  2  0
  8 15  1  0
 15 16  1  0
 14 17  1  0
 13 18  1  0
  4 19  1  0
M  END
>  <fitscore>  (18) 
0.2447

$$$$
sQC_Substrate__STK674854_rank_18
     RDKit          3D

 19 19  0  0  0  0  0  0  0  0999 V2000
   37.2748   43.1452   52.1907 O   0  0  0  0  0  0  0  0  0  1  0  0
   37.1944   43.7563   53.4265 C   0  0  0  0  0  0  0  0  0  2  0  0
   36.4568   44.7839   53.4944 O   0  0  0  0  0  0  0  0  0  3  0  0
   37.9132   43.2550   54.5910 C   0  0  0  0  0  0  0  0  0  4  0  0
   39.2102   43.3858   54.7231 C   0  0  0  0  0  0  0  0  0  5  0  0
   39.9466   43.4385   55.9693 C   0  0  0  0  0  0  0  0  0  6  0  0
   41.0801   42.8484   56.0282 O   0  0  0  0  0  0  0  0  0  7  0  0
   39.4843   44.1237   57.1767 C   0  0  0  0  0  0  0  0  0  8  0  0
   39.6627   43.5482   58.4135 C   0  0  0  0  0  0  0  0  0  9  0  0
   40.2807   42.2972   58.5730 O   0  0  0  0  0  0  0  0  0 10  0  0
   39.2267   44.2061   59.5516 C   0  0  0  0  0  0  0  0  0 11  0  0
   39.4195   43.6059   60.7680 F   0  0  0  0  0  0  0  0  0 12  0  0
   38.6175   45.4220   59.4909 C   0  0  0  0  0  0  0  0  0 13  0  0
   38.4296   46.0140   58.2654 C   0  0  0  0  0  0  0  0  0 14  0  0
   38.8675   45.3547   57.1155 C   0  0  0  0  0  0  0  0  0 15  0  0
   38.6881   45.9287   55.8963 F   0  0  0  0  0  0  0  0  0 16  0  0
   37.8329   47.2146   58.1519 F   0  0  0  0  0  0  0  0  0 17  0  0
   38.2067   46.0271   60.6442 F   0  0  0  0  0  0  0  0  0 18  0  0
   37.1683   42.6073   55.6049 N   0  0  0  0  0  0  0  0  0 19  0  0
  1  2  1  0
  2  3  2  0
  2  4  1  0
  4  5  2  0
  5  6  1  0
  6  7  2  0
  6  8  1  0
  8  9  2  0
  9 10  1  0
  9 11  1  0
 11 12  1  0
 11 13  2  0
 13 14  1  0
 14 15  2  0
  8 15  1  0
 15 16  1  0
 14 17  1  0
 13 18  1  0
  4 19  1  0
M  END
>  <fitscore>  (19) 
0.241217

$$$$
sQC_Substrate__STK674854_rank_19
     RDKit          3D

 19 19  0  0  0  0  0  0  0  0999 V2000
   37.6947   46.0602   52.5925 O   0  0  0  0  0  0  0  0  0  1  0  0
   37.1538   44.8907   53.0892 C   0  0  0  0  0  0  0  0  0  2  0  0
   36.5854   44.1359   52.2454 O   0  0  0  0  0  0  0  0  0  3  0  0
   37.2278   44.5368   54.5010 C   0  0  0  0  0  0  0  0  0  4  0  0
   38.3694   44.3712   55.1225 C   0  0  0  0  0  0  0  0  0  5  0  0
   38.7791   45.0140   56.3541 C   0  0  0  0  0  0  0  0  0  6  0  0
   38.3834   46.2106   56.5733 O   0  0  0  0  0  0  0  0  0  7  0  0
   39.6203   44.3887   57.3751 C   0  0  0  0  0  0  0  0  0  8  0  0
   39.3014   43.1463   57.8726 C   0  0  0  0  0  0  0  0  0  9  0  0
   38.1720   42.4346   57.4365 O   0  0  0  0  0  0  0  0  0 10  0  0
   40.1059   42.5596   58.8352 C   0  0  0  0  0  0  0  0  0 11  0  0
   39.7606   41.3217   59.3100 F   0  0  0  0  0  0  0  0  0 12  0  0
   41.2199   43.1772   59.3157 C   0  0  0  0  0  0  0  0  0 13  0  0
   41.5561   44.4184   58.8320 C   0  0  0  0  0  0  0  0  0 14  0  0
   40.7481   45.0138   57.8618 C   0  0  0  0  0  0  0  0  0 15  0  0
   41.0688   46.2416   57.3742 F   0  0  0  0  0  0  0  0  0 16  0  0
   42.6469   45.0704   59.2744 F   0  0  0  0  0  0  0  0  0 17  0  0
   41.9784   42.5538   60.2651 F   0  0  0  0  0  0  0  0  0 18  0  0
   36.0146   44.3708   55.2101 N   0  0  0  0  0  0  0  0  0 19  0  0
  1  2  1  0
  2  3  2  0
  2  4  1  0
  4  5  2  0
  5  6  1  0
  6  7  2  0
  6  8  1  0
  8  9  2  0
  9 10  1  0
  9 11  1  0
 11 12  1  0
 11 13  2  0
 13 14  1  0
 14 15  2  0
  8 15  1  0
 15 16  1  0
 14 17  1  0
 13 18  1  0
  4 19  1  0
M  END
>  <fitscore>  (20) 
0.23917

$$$$
sQC_Substrate__STK674854_rank_20
     RDKit          3D

 19 19  0  0  0  0  0  0  0  0999 V2000
   37.3484   45.8265   52.5332 O   0  0  0  0  0  0  0  0  0  1  0  0
   37.9647   45.8485   53.7688 C   0  0  0  0  0  0  0  0  0  2  0  0
   39.1267   46.3515   53.8043 O   0  0  0  0  0  0  0  0  0  3  0  0
   37.3228   45.3256   54.9682 C   0  0  0  0  0  0  0  0  0  4  0  0
   38.0079   44.8384   55.9733 C   0  0  0  0  0  0  0  0  0  5  0  0
   37.4644   44.2868   57.1973 C   0  0  0  0  0  0  0  0  0  6  0  0
   36.2107   44.4174   57.4160 O   0  0  0  0  0  0  0  0  0  7  0  0
   38.2519   43.5847   58.2112 C   0  0  0  0  0  0  0  0  0  8  0  0
   39.5869   43.3285   57.9993 C   0  0  0  0  0  0  0  0  0  9  0  0
   40.2439   43.7164   56.8203 O   0  0  0  0  0  0  0  0  0 10  0  0
   40.3261   42.6679   58.9665 C   0  0  0  0  0  0  0  0  0 11  0  0
   41.6532   42.4281   58.7247 F   0  0  0  0  0  0  0  0  0 12  0  0
   39.7713   42.2557   60.1393 C   0  0  0  0  0  0  0  0  0 13  0  0
   38.4395   42.5018   60.3705 C   0  0  0  0  0  0  0  0  0 14  0  0
   37.6904   43.1673   59.3986 C   0  0  0  0  0  0  0  0  0 15  0  0
   36.3717   43.4174   59.6140 F   0  0  0  0  0  0  0  0  0 16  0  0
   37.8441   42.1147   61.5134 F   0  0  0  0  0  0  0  0  0 17  0  0
   40.5457   41.6082   61.0592 F   0  0  0  0  0  0  0  0  0 18  0  0
   35.9095   45.3532   55.0327 N   0  0  0  0  0  0  0  0  0 19  0  0
  1  2  1  0
  2  3  2  0
  2  4  1  0
  4  5  2  0
  5  6  1  0
  6  7  2  0
  6  8  1  0
  8  9  2  0
  9 10  1  0
  9 11  1  0
 11 12  1  0
 11 13  2  0
 13 14  1  0
 14 15  2  0
  8 15  1  0
 15 16  1  0
 14 17  1  0
 13 18  1  0
  4 19  1  0
M  END
>  <fitscore>  (21) 
0.238108

$$$$
sQC_Substrate__STK674854_rank_21
     RDKit          3D

 19 19  0  0  0  0  0  0  0  0999 V2000
   35.4875   45.0900   53.5452 O   0  0  0  0  0  0  0  0  0  1  0  0
   36.5441   45.5403   54.3119 C   0  0  0  0  0  0  0  0  0  2  0  0
   36.3549   46.6224   54.9429 O   0  0  0  0  0  0  0  0  0  3  0  0
   37.8077   44.8191   54.3962 C   0  0  0  0  0  0  0  0  0  4  0  0
   38.7211   45.1087   55.2899 C   0  0  0  0  0  0  0  0  0  5  0  0
   39.6375   44.1779   55.9157 C   0  0  0  0  0  0  0  0  0  6  0  0
   40.2448   43.3331   55.1712 O   0  0  0  0  0  0  0  0  0  7  0  0
   39.9219   44.1329   57.3503 C   0  0  0  0  0  0  0  0  0  8  0  0
   38.9565   43.7153   58.2371 C   0  0  0  0  0  0  0  0  0  9  0  0
   37.6748   43.3247   57.8165 O   0  0  0  0  0  0  0  0  0 10  0  0
   39.2358   43.6709   59.5929 C   0  0  0  0  0  0  0  0  0 11  0  0
   38.2527   43.2504   60.4495 F   0  0  0  0  0  0  0  0  0 12  0  0
   40.4511   44.0313   60.0893 C   0  0  0  0  0  0  0  0  0 13  0  0
   41.4291   44.4512   59.2205 C   0  0  0  0  0  0  0  0  0 14  0  0
   41.1522   44.4977   57.8531 C   0  0  0  0  0  0  0  0  0 15  0  0
   42.1105   44.9112   56.9819 F   0  0  0  0  0  0  0  0  0 16  0  0
   42.6465   44.8181   59.6609 F   0  0  0  0  0  0  0  0  0 17  0  0
   40.6737   43.9687   61.4353 F   0  0  0  0  0  0  0  0  0 18  0  0
   38.0393   43.7720   53.4730 N   0  0  0  0  0  0  0  0  0 19  0  0
  1  2  1  0
  2  3  2  0
  2  4  1  0
  4  5  2  0
  5  6  1  0
  6  7  2  0
  6  8  1  0
  8  9  2  0
  9 10  1  0
  9 11  1  0
 11 12  1  0
 11 13  2  0
 13 14  1  0
 14 15  2  0
  8 15  1  0
 15 16  1  0
 14 17  1  0
 13 18  1  0
  4 19  1  0
M  END
>  <fitscore>  (22) 
0.237957

$$$$
sQC_Substrate__STK674854_rank_22
     RDKit          3D

 19 19  0  0  0  0  0  0  0  0999 V2000
   36.6762   46.5007   52.6011 O   0  0  0  0  0  0  0  0  0  1  0  0
   36.8439   46.1925   53.9367 C   0  0  0  0  0  0  0  0  0  2  0  0
   36.3103   46.9889   54.7649 O   0  0  0  0  0  0  0  0  0  3  0  0
   37.5900   45.0207   54.3774 C   0  0  0  0  0  0  0  0  0  4  0  0
   38.4035   45.0539   55.4040 C   0  0  0  0  0  0  0  0  0  5  0  0
   39.1147   43.9283   55.9743 C   0  0  0  0  0  0  0  0  0  6  0  0
   39.1573   42.8378   55.3067 O   0  0  0  0  0  0  0  0  0  7  0  0
   39.7941   43.9477   57.2700 C   0  0  0  0  0  0  0  0  0  8  0  0
   39.2882   43.2320   58.3305 C   0  0  0  0  0  0  0  0  0  9  0  0
   38.1152   42.4673   58.2236 O   0  0  0  0  0  0  0  0  0 10  0  0
   39.9405   43.2519   59.5521 C   0  0  0  0  0  0  0  0  0 11  0  0
   39.4108   42.5284   60.5880 F   0  0  0  0  0  0  0  0  0 12  0  0
   41.0834   43.9656   59.7459 C   0  0  0  0  0  0  0  0  0 13  0  0
   41.6052   44.6872   58.6997 C   0  0  0  0  0  0  0  0  0 14  0  0
   40.9512   44.6703   57.4665 C   0  0  0  0  0  0  0  0  0 15  0  0
   41.4563   45.3796   56.4225 F   0  0  0  0  0  0  0  0  0 16  0  0
   42.7322   45.4088   58.8399 F   0  0  0  0  0  0  0  0  0 17  0  0
   41.6866   43.9506   60.9711 F   0  0  0  0  0  0  0  0  0 18  0  0
   37.4174   43.8132   53.6601 N   0  0  0  0  0  0  0  0  0 19  0  0
  1  2  1  0
  2  3  2  0
  2  4  1  0
  4  5  2  0
  5  6  1  0
  6  7  2  0
  6  8  1  0
  8  9  2  0
  9 10  1  0
  9 11  1  0
 11 12  1  0
 11 13  2  0
 13 14  1  0
 14 15  2  0
  8 15  1  0
 15 16  1  0
 14 17  1  0
 13 18  1  0
  4 19  1  0
M  END
>  <fitscore>  (23) 
0.232774

$$$$
sQC_Substrate__STK674854_rank_23
     RDKit          3D

 19 19  0  0  0  0  0  0  0  0999 V2000
   38.8216   44.6645   52.1279 O   0  0  0  0  0  0  0  0  0  1  0  0
   37.8524   44.8769   53.0884 C   0  0  0  0  0  0  0  0  0  2  0  0
   37.0134   45.7934   52.8419 O   0  0  0  0  0  0  0  0  0  3  0  0
   37.7906   44.0965   54.3177 C   0  0  0  0  0  0  0  0  0  4  0  0
   38.7395   44.1355   55.2204 C   0  0  0  0  0  0  0  0  0  5  0  0
   38.7411   43.4503   56.4965 C   0  0  0  0  0  0  0  0  0  6  0  0
   38.0115   42.4074   56.6247 O   0  0  0  0  0  0  0  0  0  7  0  0
   39.5235   43.8679   57.6603 C   0  0  0  0  0  0  0  0  0  8  0  0
   38.9414   43.9219   58.9057 C   0  0  0  0  0  0  0  0  0  9  0  0
   37.5929   43.5901   59.1148 O   0  0  0  0  0  0  0  0  0 10  0  0
   39.6907   44.3133   60.0028 C   0  0  0  0  0  0  0  0  0 11  0  0
   39.0812   44.3566   61.2290 F   0  0  0  0  0  0  0  0  0 12  0  0
   41.0045   44.6525   59.8927 C   0  0  0  0  0  0  0  0  0 13  0  0
   41.6048   44.6053   58.6578 C   0  0  0  0  0  0  0  0  0 14  0  0
   40.8536   44.2114   57.5491 C   0  0  0  0  0  0  0  0  0 15  0  0
   41.4348   44.1601   56.3212 F   0  0  0  0  0  0  0  0  0 16  0  0
   42.9004   44.9308   58.4962 F   0  0  0  0  0  0  0  0  0 17  0  0
   41.6973   45.0315   61.0070 F   0  0  0  0  0  0  0  0  0 18  0  0
   36.6586   43.2737   54.5276 N   0  0  0  0  0  0  0  0  0 19  0  0
  1  2  1  0
  2  3  2  0
  2  4  1  0
  4  5  2  0
  5  6  1  0
  6  7  2  0
  6  8  1  0
  8  9  2  0
  9 10  1  0
  9 11  1  0
 11 12  1  0
 11 13  2  0
 13 14  1  0
 14 15  2  0
  8 15  1  0
 15 16  1  0
 14 17  1  0
 13 18  1  0
  4 19  1  0
M  END
>  <fitscore>  (24) 
0.227192

$$$$
sQC_Substrate__STK674854_rank_24
     RDKit          3D

 19 19  0  0  0  0  0  0  0  0999 V2000
   38.1591   46.1677   52.0068 O   0  0  0  0  0  0  0  0  0  1  0  0
   37.3940   46.3905   53.1346 C   0  0  0  0  0  0  0  0  0  2  0  0
   36.6406   47.4085   53.1062 O   0  0  0  0  0  0  0  0  0  3  0  0
   37.4440   45.5107   54.2953 C   0  0  0  0  0  0  0  0  0  4  0  0
   38.5497   45.2971   54.9651 C   0  0  0  0  0  0  0  0  0  5  0  0
   38.6895   45.2653   56.4064 C   0  0  0  0  0  0  0  0  0  6  0  0
   37.9115   46.0009   57.1066 O   0  0  0  0  0  0  0  0  0  7  0  0
   39.6647   44.4458   57.1265 C   0  0  0  0  0  0  0  0  0  8  0  0
   39.2597   43.3192   57.8044 C   0  0  0  0  0  0  0  0  0  9  0  0
   37.9160   42.9125   57.8414 O   0  0  0  0  0  0  0  0  0 10  0  0
   40.1901   42.5464   58.4792 C   0  0  0  0  0  0  0  0  0 11  0  0
   39.7543   41.4308   59.1444 F   0  0  0  0  0  0  0  0  0 12  0  0
   41.5134   42.8657   58.4968 C   0  0  0  0  0  0  0  0  0 13  0  0
   41.9386   43.9867   57.8260 C   0  0  0  0  0  0  0  0  0 14  0  0
   41.0044   44.7688   57.1445 C   0  0  0  0  0  0  0  0  0 15  0  0
   41.4110   45.8808   56.4765 F   0  0  0  0  0  0  0  0  0 16  0  0
   43.2355   44.3452   57.8130 F   0  0  0  0  0  0  0  0  0 17  0  0
   42.3888   42.0688   59.1779 F   0  0  0  0  0  0  0  0  0 18  0  0
   36.2469   44.8733   54.6994 N   0  0  0  0  0  0  0  0  0 19  0  0
  1  2  1  0
  2  3  2  0
  2  4  1  0
  4  5  2  0
  5  6  1  0
  6  7  2  0
  6  8  1  0
  8  9  2  0
  9 10  1  0
  9 11  1  0
 11 12  1  0
 11 13  2  0
 13 14  1  0
 14 15  2  0
  8 15  1  0
 15 16  1  0
 14 17  1  0
 13 18  1  0
  4 19  1  0
M  END
>  <fitscore>  (25) 
0.22401

$$$$
sQC_Substrate__STK674854_rank_25
     RDKit          3D

 19 19  0  0  0  0  0  0  0  0999 V2000
   37.1274   44.4365   52.3172 O   0  0  0  0  0  0  0  0  0  1  0  0
   36.6192   45.0088   53.4667 C   0  0  0  0  0  0  0  0  0  2  0  0
   35.3910   45.3178   53.4407 O   0  0  0  0  0  0  0  0  0  3  0  0
   37.4409   45.2472   54.6464 C   0  0  0  0  0  0  0  0  0  4  0  0
   38.7083   44.9182   54.6952 C   0  0  0  0  0  0  0  0  0  5  0  0
   39.6679   45.3381   55.6956 C   0  0  0  0  0  0  0  0  0  6  0  0
   39.9798   46.5775   55.7529 O   0  0  0  0  0  0  0  0  0  7  0  0
   40.3123   44.4399   56.6543 C   0  0  0  0  0  0  0  0  0  8  0  0
   39.5651   43.7949   57.6126 C   0  0  0  0  0  0  0  0  0  9  0  0
   38.1754   43.9683   57.7179 O   0  0  0  0  0  0  0  0  0 10  0  0
   40.1825   42.9425   58.5128 C   0  0  0  0  0  0  0  0  0 11  0  0
   39.4100   42.3156   59.4548 F   0  0  0  0  0  0  0  0  0 12  0  0
   41.5244   42.7152   58.4842 C   0  0  0  0  0  0  0  0  0 13  0  0
   42.2887   43.3495   57.5350 C   0  0  0  0  0  0  0  0  0 14  0  0
   41.6709   44.2096   56.6255 C   0  0  0  0  0  0  0  0  0 15  0  0
   42.4148   44.8440   55.6809 F   0  0  0  0  0  0  0  0  0 16  0  0
   43.6188   43.1585   57.4648 F   0  0  0  0  0  0  0  0  0 17  0  0
   42.0825   41.8647   59.3955 F   0  0  0  0  0  0  0  0  0 18  0  0
   36.8326   45.8566   55.7693 N   0  0  0  0  0  0  0  0  0 19  0  0
  1  2  1  0
  2  3  2  0
  2  4  1  0
  4  5  2  0
  5  6  1  0
  6  7  2  0
  6  8  1  0
  8  9  2  0
  9 10  1  0
  9 11  1  0
 11 12  1  0
 11 13  2  0
 13 14  1  0
 14 15  2  0
  8 15  1  0
 15 16  1  0
 14 17  1  0
 13 18  1  0
  4 19  1  0
M  END
>  <fitscore>  (26) 
0.223707

$$$$
sQC_Substrate__STK674854_rank_26
     RDKit          3D

 19 19  0  0  0  0  0  0  0  0999 V2000
   35.3833   44.2097   55.0633 O   0  0  0  0  0  0  0  0  0  1  0  0
   36.1637   44.9517   54.1987 C   0  0  0  0  0  0  0  0  0  2  0  0
   35.5831   45.3961   53.1642 O   0  0  0  0  0  0  0  0  0  3  0  0
   37.5745   45.2135   54.4535 C   0  0  0  0  0  0  0  0  0  4  0  0
   38.1269   44.9977   55.6218 C   0  0  0  0  0  0  0  0  0  5  0  0
   39.5433   44.8580   55.8907 C   0  0  0  0  0  0  0  0  0  6  0  0
   40.3664   45.0983   54.9413 O   0  0  0  0  0  0  0  0  0  7  0  0
   40.1065   44.4585   57.1807 C   0  0  0  0  0  0  0  0  0  8  0  0
   39.9460   43.1716   57.6402 C   0  0  0  0  0  0  0  0  0  9  0  0
   39.2431   42.1999   56.9094 O   0  0  0  0  0  0  0  0  0 10  0  0
   40.4867   42.8006   58.8601 C   0  0  0  0  0  0  0  0  0 11  0  0
   40.3091   41.5116   59.2890 F   0  0  0  0  0  0  0  0  0 12  0  0
   41.1831   43.6770   59.6348 C   0  0  0  0  0  0  0  0  0 13  0  0
   41.3547   44.9669   59.1942 C   0  0  0  0  0  0  0  0  0 14  0  0
   40.8115   45.3456   57.9653 C   0  0  0  0  0  0  0  0  0 15  0  0
   40.9736   46.6187   57.5169 F   0  0  0  0  0  0  0  0  0 16  0  0
   42.0349   45.8710   59.9226 F   0  0  0  0  0  0  0  0  0 17  0  0
   41.6955   43.2588   60.8298 F   0  0  0  0  0  0  0  0  0 18  0  0
   38.3605   45.7179   53.3903 N   0  0  0  0  0  0  0  0  0 19  0  0
  1  2  1  0
  2  3  2  0
  2  4  1  0
  4  5  2  0
  5  6  1  0
  6  7  2  0
  6  8  1  0
  8  9  2  0
  9 10  1  0
  9 11  1  0
 11 12  1  0
 11 13  2  0
 13 14  1  0
 14 15  2  0
  8 15  1  0
 15 16  1  0
 14 17  1  0
 13 18  1  0
  4 19  1  0
M  END
>  <fitscore>  (27) 
0.219007

$$$$
sQC_Substrate__STK674854_rank_27
     RDKit          3D

 19 19  0  0  0  0  0  0  0  0999 V2000
   36.7382   45.0623   52.6052 O   0  0  0  0  0  0  0  0  0  1  0  0
   36.1894   45.4450   53.8133 C   0  0  0  0  0  0  0  0  0  2  0  0
   35.3804   46.4191   53.7755 O   0  0  0  0  0  0  0  0  0  3  0  0
   36.5162   44.7730   55.0644 C   0  0  0  0  0  0  0  0  0  4  0  0
   37.7503   44.6300   55.4809 C   0  0  0  0  0  0  0  0  0  5  0  0
   38.1704   44.0723   56.7500 C   0  0  0  0  0  0  0  0  0  6  0  0
   37.2677   43.7272   57.5882 O   0  0  0  0  0  0  0  0  0  7  0  0
   39.5646   43.8731   57.1467 C   0  0  0  0  0  0  0  0  0  8  0  0
   39.9208   43.9090   58.4751 C   0  0  0  0  0  0  0  0  0  9  0  0
   38.9822   44.1392   59.4940 O   0  0  0  0  0  0  0  0  0 10  0  0
   41.2420   43.7144   58.8422 C   0  0  0  0  0  0  0  0  0 11  0  0
   41.5637   43.7563   60.1733 F   0  0  0  0  0  0  0  0  0 12  0  0
   42.2182   43.4850   57.9215 C   0  0  0  0  0  0  0  0  0 13  0  0
   41.8835   43.4452   56.5896 C   0  0  0  0  0  0  0  0  0 14  0  0
   40.5531   43.6408   56.2148 C   0  0  0  0  0  0  0  0  0 15  0  0
   40.2077   43.6042   54.9005 F   0  0  0  0  0  0  0  0  0 16  0  0
   42.8112   43.2219   55.6409 F   0  0  0  0  0  0  0  0  0 17  0  0
   43.5057   43.2995   58.3378 F   0  0  0  0  0  0  0  0  0 18  0  0
   35.4511   44.2636   55.8444 N   0  0  0  0  0  0  0  0  0 19  0  0
  1  2  1  0
  2  3  2  0
  2  4  1  0
  4  5  2  0
  5  6  1  0
  6  7  2  0
  6  8  1  0
  8  9  2  0
  9 10  1  0
  9 11  1  0
 11 12  1  0
 11 13  2  0
 13 14  1  0
 14 15  2  0
  8 15  1  0
 15 16  1  0
 14 17  1  0
 13 18  1  0
  4 19  1  0
M  END
>  <fitscore>  (28) 
0.198659

$$$$
sQC_Substrate__STK674854_rank_28
     RDKit          3D

 19 19  0  0  0  0  0  0  0  0999 V2000
   38.2715   45.8166   53.0708 O   0  0  0  0  0  0  0  0  0  1  0  0
   37.1494   45.3122   53.6980 C   0  0  0  0  0  0  0  0  0  2  0  0
   36.1920   44.9721   52.9414 O   0  0  0  0  0  0  0  0  0  3  0  0
   37.0625   45.1755   55.1464 C   0  0  0  0  0  0  0  0  0  4  0  0
   38.1065   44.8961   55.8872 C   0  0  0  0  0  0  0  0  0  5  0  0
   38.1375   44.8125   57.3329 C   0  0  0  0  0  0  0  0  0  6  0  0
   37.0578   45.0506   57.9764 O   0  0  0  0  0  0  0  0  0  7  0  0
   39.3245   44.4726   58.1181 C   0  0  0  0  0  0  0  0  0  8  0  0
   40.0643   43.3542   57.8101 C   0  0  0  0  0  0  0  0  0  9  0  0
   39.7193   42.4990   56.7509 O   0  0  0  0  0  0  0  0  0 10  0  0
   41.1894   43.0427   58.5553 C   0  0  0  0  0  0  0  0  0 11  0  0
   41.9042   41.9222   58.2227 F   0  0  0  0  0  0  0  0  0 12  0  0
   41.5975   43.8152   59.5992 C   0  0  0  0  0  0  0  0  0 13  0  0
   40.8726   44.9364   59.9233 C   0  0  0  0  0  0  0  0  0 14  0  0
   39.7379   45.2545   59.1750 C   0  0  0  0  0  0  0  0  0 15  0  0
   39.0111   46.3609   59.4845 F   0  0  0  0  0  0  0  0  0 16  0  0
   41.2343   45.7327   60.9459 F   0  0  0  0  0  0  0  0  0 17  0  0
   42.7146   43.4623   60.3011 F   0  0  0  0  0  0  0  0  0 18  0  0
   35.7988   45.3545   55.7573 N   0  0  0  0  0  0  0  0  0 19  0  0
  1  2  1  0
  2  3  2  0
  2  4  1  0
  4  5  2  0
  5  6  1  0
  6  7  2  0
  6  8  1  0
  8  9  2  0
  9 10  1  0
  9 11  1  0
 11 12  1  0
 11 13  2  0
 13 14  1  0
 14 15  2  0
  8 15  1  0
 15 16  1  0
 14 17  1  0
 13 18  1  0
  4 19  1  0
M  END
>  <fitscore>  (29) 
0.194401

$$$$
sQC_Substrate__STK674854_rank_29
     RDKit          3D

 19 19  0  0  0  0  0  0  0  0999 V2000
   39.5305   45.4923   52.5436 O   0  0  0  0  0  0  0  0  0  1  0  0
   38.6700   45.9584   53.5179 C   0  0  0  0  0  0  0  0  0  2  0  0
   38.4902   47.2119   53.5510 O   0  0  0  0  0  0  0  0  0  3  0  0
   38.0027   45.0670   54.4582 C   0  0  0  0  0  0  0  0  0  4  0  0
   38.4663   44.8466   55.6637 C   0  0  0  0  0  0  0  0  0  5  0  0
   37.6891   44.4833   56.8308 C   0  0  0  0  0  0  0  0  0  6  0  0
   36.4139   44.5496   56.7537 O   0  0  0  0  0  0  0  0  0  7  0  0
   38.2616   44.0421   58.1030 C   0  0  0  0  0  0  0  0  0  8  0  0
   39.6147   43.8207   58.2164 C   0  0  0  0  0  0  0  0  0  9  0  0
   40.4938   43.9992   57.1358 O   0  0  0  0  0  0  0  0  0 10  0  0
   40.1489   43.4080   59.4258 C   0  0  0  0  0  0  0  0  0 11  0  0
   41.5001   43.1963   59.5054 F   0  0  0  0  0  0  0  0  0 12  0  0
   39.3713   43.2099   60.5255 C   0  0  0  0  0  0  0  0  0 13  0  0
   38.0176   43.4255   60.4335 C   0  0  0  0  0  0  0  0  0 14  0  0
   37.4746   43.8414   59.2166 C   0  0  0  0  0  0  0  0  0 15  0  0
   36.1368   44.0585   59.1111 F   0  0  0  0  0  0  0  0  0 16  0  0
   37.2061   43.2438   61.4914 F   0  0  0  0  0  0  0  0  0 17  0  0
   39.9495   42.8026   61.6939 F   0  0  0  0  0  0  0  0  0 18  0  0
   36.8133   44.4258   54.0379 N   0  0  0  0  0  0  0  0  0 19  0  0
  1  2  1  0
  2  3  2  0
  2  4  1  0
  4  5  2  0
  5  6  1  0
  6  7  2  0
  6  8  1  0
  8  9  2  0
  9 10  1  0
  9 11  1  0
 11 12  1  0
 11 13  2  0
 13 14  1  0
 14 15  2  0
  8 15  1  0
 15 16  1  0
 14 17  1  0
 13 18  1  0
  4 19  1  0
M  END
>  <fitscore>  (30) 
0.191471

$$$$
sQC_Substrate__STK674854_rank_30
     RDKit          3D

 19 19  0  0  0  0  0  0  0  0999 V2000
   35.0635   45.5689   54.1292 O   0  0  0  0  0  0  0  0  0  1  0  0
   35.8805   44.9095   55.0263 C   0  0  0  0  0  0  0  0  0  2  0  0
   35.2990   44.1511   55.8579 O   0  0  0  0  0  0  0  0  0  3  0  0
   37.3289   45.0706   55.0239 C   0  0  0  0  0  0  0  0  0  4  0  0
   38.1358   44.1579   55.5063 C   0  0  0  0  0  0  0  0  0  5  0  0
   39.5588   44.3022   55.7347 C   0  0  0  0  0  0  0  0  0  6  0  0
   40.1985   45.1673   55.0427 O   0  0  0  0  0  0  0  0  0  7  0  0
   40.3250   43.5234   56.7081 C   0  0  0  0  0  0  0  0  0  8  0  0
   39.7077   43.0034   57.8223 C   0  0  0  0  0  0  0  0  0  9  0  0
   38.3399   43.1957   58.0764 O   0  0  0  0  0  0  0  0  0 10  0  0
   40.4394   42.2631   58.7360 C   0  0  0  0  0  0  0  0  0 11  0  0
   39.7948   41.7592   59.8349 F   0  0  0  0  0  0  0  0  0 12  0  0
   41.7697   42.0269   58.5698 C   0  0  0  0  0  0  0  0  0 13  0  0
   42.4052   42.5373   57.4639 C   0  0  0  0  0  0  0  0  0 14  0  0
   41.6719   43.2841   56.5401 C   0  0  0  0  0  0  0  0  0 15  0  0
   42.2878   43.7952   55.4413 F   0  0  0  0  0  0  0  0  0 16  0  0
   43.7184   42.3321   57.2538 F   0  0  0  0  0  0  0  0  0 17  0  0
   42.4439   41.2903   59.5015 F   0  0  0  0  0  0  0  0  0 18  0  0
   37.8654   46.2604   54.4773 N   0  0  0  0  0  0  0  0  0 19  0  0
  1  2  1  0
  2  3  2  0
  2  4  1  0
  4  5  2  0
  5  6  1  0
  6  7  2  0
  6  8  1  0
  8  9  2  0
  9 10  1  0
  9 11  1  0
 11 12  1  0
 11 13  2  0
 13 14  1  0
 14 15  2  0
  8 15  1  0
 15 16  1  0
 14 17  1  0
 13 18  1  0
  4 19  1  0
M  END
>  <fitscore>  (31) 
0.180247

$$$$
sQC_Substrate__STK674854_rank_31
     RDKit          3D

 19 19  0  0  0  0  0  0  0  0999 V2000
   35.7148   47.3976   54.9096 O   0  0  0  0  0  0  0  0  0  1  0  0
   35.6867   46.0304   54.7172 C   0  0  0  0  0  0  0  0  0  2  0  0
   34.5386   45.4988   54.6539 O   0  0  0  0  0  0  0  0  0  3  0  0
   36.9027   45.2367   54.5931 C   0  0  0  0  0  0  0  0  0  4  0  0
   37.8424   45.2477   55.5061 C   0  0  0  0  0  0  0  0  0  5  0  0
   39.0426   44.4369   55.5147 C   0  0  0  0  0  0  0  0  0  6  0  0
   39.5112   44.0370   54.3935 O   0  0  0  0  0  0  0  0  0  7  0  0
   39.7647   44.0382   56.7232 C   0  0  0  0  0  0  0  0  0  8  0  0
   39.1044   43.4024   57.7491 C   0  0  0  0  0  0  0  0  0  9  0  0
   37.7309   43.1156   57.6889 O   0  0  0  0  0  0  0  0  0 10  0  0
   39.7967   43.0239   58.8874 C   0  0  0  0  0  0  0  0  0 11  0  0
   39.1098   42.3926   59.8908 F   0  0  0  0  0  0  0  0  0 12  0  0
   41.1293   43.2618   59.0313 C   0  0  0  0  0  0  0  0  0 13  0  0
   41.8075   43.8956   58.0184 C   0  0  0  0  0  0  0  0  0 14  0  0
   41.1139   44.2789   56.8692 C   0  0  0  0  0  0  0  0  0 15  0  0
   41.7722   44.9069   55.8590 F   0  0  0  0  0  0  0  0  0 16  0  0
   43.1247   44.1537   58.1121 F   0  0  0  0  0  0  0  0  0 17  0  0
   41.7636   42.8675   60.1748 F   0  0  0  0  0  0  0  0  0 18  0  0
   37.0571   44.4314   53.4398 N   0  0  0  0  0  0  0  0  0 19  0  0
  1  2  1  0
  2  3  2  0
  2  4  1  0
  4  5  2  0
  5  6  1  0
  6  7  2  0
  6  8  1  0
  8  9  2  0
  9 10  1  0
  9 11  1  0
 11 12  1  0
 11 13  2  0
 13 14  1  0
 14 15  2  0
  8 15  1  0
 15 16  1  0
 14 17  1  0
 13 18  1  0
  4 19  1  0
M  END
>  <fitscore>  (32) 
0.172883

$$$$
sQC_Substrate__STK674854_rank_32
     RDKit          3D

 19 19  0  0  0  0  0  0  0  0999 V2000
   34.4193   44.4822   54.6320 O   0  0  0  0  0  0  0  0  0  1  0  0
   35.4761   44.6310   55.5083 C   0  0  0  0  0  0  0  0  0  2  0  0
   35.2681   45.3739   56.5130 O   0  0  0  0  0  0  0  0  0  3  0  0
   36.7603   43.9750   55.2976 C   0  0  0  0  0  0  0  0  0  4  0  0
   37.8835   44.4708   55.7555 C   0  0  0  0  0  0  0  0  0  5  0  0
   39.1690   43.8041   55.7849 C   0  0  0  0  0  0  0  0  0  6  0  0
   39.5096   43.1006   54.7722 O   0  0  0  0  0  0  0  0  0  7  0  0
   40.1150   43.8771   56.8988 C   0  0  0  0  0  0  0  0  0  8  0  0
   39.7492   43.4396   58.1508 C   0  0  0  0  0  0  0  0  0  9  0  0
   38.4730   42.9167   58.4158 O   0  0  0  0  0  0  0  0  0 10  0  0
   40.6526   43.5077   59.1983 C   0  0  0  0  0  0  0  0  0 11  0  0
   40.2572   43.0638   60.4327 F   0  0  0  0  0  0  0  0  0 12  0  0
   41.9110   43.9999   59.0323 C   0  0  0  0  0  0  0  0  0 13  0  0
   42.2962   44.4421   57.7899 C   0  0  0  0  0  0  0  0  0 14  0  0
   41.3890   44.3755   56.7310 C   0  0  0  0  0  0  0  0  0 15  0  0
   41.7567   44.8094   55.4962 F   0  0  0  0  0  0  0  0  0 16  0  0
   43.5286   44.9372   57.5739 F   0  0  0  0  0  0  0  0  0 17  0  0
   42.7623   44.0445   60.0993 F   0  0  0  0  0  0  0  0  0 18  0  0
   36.7763   42.7608   54.5711 N   0  0  0  0  0  0  0  0  0 19  0  0
  1  2  1  0
  2  3  2  0
  2  4  1  0
  4  5  2  0
  5  6  1  0
  6  7  2  0
  6  8  1  0
  8  9  2  0
  9 10  1  0
  9 11  1  0
 11 12  1  0
 11 13  2  0
 13 14  1  0
 14 15  2  0
  8 15  1  0
 15 16  1  0
 14 17  1  0
 13 18  1  0
  4 19  1  0
M  END
>  <fitscore>  (33) 
0.162864

$$$$
sQC_Substrate__STK674854_rank_33
     RDKit          3D

 19 19  0  0  0  0  0  0  0  0999 V2000
   35.9563   46.0600   52.5435 O   0  0  0  0  0  0  0  0  0  1  0  0
   37.0400   46.2623   53.3753 C   0  0  0  0  0  0  0  0  0  2  0  0
   37.2669   47.4614   53.7151 O   0  0  0  0  0  0  0  0  0  3  0  0
   37.8796   45.1657   53.8404 C   0  0  0  0  0  0  0  0  0  4  0  0
   38.2556   45.0531   55.0905 C   0  0  0  0  0  0  0  0  0  5  0  0
   39.0129   43.9605   55.6656 C   0  0  0  0  0  0  0  0  0  6  0  0
   39.2749   42.9501   54.9261 O   0  0  0  0  0  0  0  0  0  7  0  0
   39.5044   43.9280   57.0434 C   0  0  0  0  0  0  0  0  0  8  0  0
   38.7253   43.3995   58.0467 C   0  0  0  0  0  0  0  0  0  9  0  0
   37.4433   42.8808   57.8020 O   0  0  0  0  0  0  0  0  0 10  0  0
   39.2004   43.3680   59.3472 C   0  0  0  0  0  0  0  0  0 11  0  0
   38.3998   42.8352   60.3231 F   0  0  0  0  0  0  0  0  0 12  0  0
   40.4310   43.8487   59.6755 C   0  0  0  0  0  0  0  0  0 13  0  0
   41.2249   44.3806   58.6883 C   0  0  0  0  0  0  0  0  0 14  0  0
   40.7503   44.4146   57.3760 C   0  0  0  0  0  0  0  0  0 15  0  0
   41.5251   44.9380   56.3892 F   0  0  0  0  0  0  0  0  0 16  0  0
   42.4488   44.8687   58.9611 F   0  0  0  0  0  0  0  0  0 17  0  0
   40.8508   43.7932   60.9739 F   0  0  0  0  0  0  0  0  0 18  0  0
   38.2938   44.1974   52.8952 N   0  0  0  0  0  0  0  0  0 19  0  0
  1  2  1  0
  2  3  2  0
  2  4  1  0
  4  5  2  0
  5  6  1  0
  6  7  2  0
  6  8  1  0
  8  9  2  0
  9 10  1  0
  9 11  1  0
 11 12  1  0
 11 13  2  0
 13 14  1  0
 14 15  2  0
  8 15  1  0
 15 16  1  0
 14 17  1  0
 13 18  1  0
  4 19  1  0
M  END
>  <fitscore>  (34) 
0.162784

$$$$
sQC_Substrate__STK674854_rank_34
     RDKit          3D

 19 19  0  0  0  0  0  0  0  0999 V2000
   36.2274   43.6328   53.3771 O   0  0  0  0  0  0  0  0  0  1  0  0
   36.4773   44.9568   53.6798 C   0  0  0  0  0  0  0  0  0  2  0  0
   36.2788   45.7901   52.7465 O   0  0  0  0  0  0  0  0  0  3  0  0
   36.9429   45.3803   54.9943 C   0  0  0  0  0  0  0  0  0  4  0  0
   37.9469   44.7983   55.6026 C   0  0  0  0  0  0  0  0  0  5  0  0
   38.4603   45.1225   56.9176 C   0  0  0  0  0  0  0  0  0  6  0  0
   37.9215   46.0914   57.5560 O   0  0  0  0  0  0  0  0  0  7  0  0
   39.5604   44.4163   57.5750 C   0  0  0  0  0  0  0  0  0  8  0  0
   39.3058   43.3308   58.3810 C   0  0  0  0  0  0  0  0  0  9  0  0
   38.0025   42.8608   58.6112 O   0  0  0  0  0  0  0  0  0 10  0  0
   40.3534   42.6650   58.9954 C   0  0  0  0  0  0  0  0  0 11  0  0
   40.0661   41.5878   59.7918 F   0  0  0  0  0  0  0  0  0 12  0  0
   41.6480   43.0514   58.8284 C   0  0  0  0  0  0  0  0  0 13  0  0
   41.9238   44.1330   58.0274 C   0  0  0  0  0  0  0  0  0 14  0  0
   40.8711   44.8073   57.4061 C   0  0  0  0  0  0  0  0  0 15  0  0
   41.1294   45.8792   56.6108 F   0  0  0  0  0  0  0  0  0 16  0  0
   43.1863   44.5546   57.8303 F   0  0  0  0  0  0  0  0  0 17  0  0
   42.6433   42.3594   59.4575 F   0  0  0  0  0  0  0  0  0 18  0  0
   36.2759   46.4597   55.6207 N   0  0  0  0  0  0  0  0  0 19  0  0
  1  2  1  0
  2  3  2  0
  2  4  1  0
  4  5  2  0
  5  6  1  0
  6  7  2  0
  6  8  1  0
  8  9  2  0
  9 10  1  0
  9 11  1  0
 11 12  1  0
 11 13  2  0
 13 14  1  0
 14 15  2  0
  8 15  1  0
 15 16  1  0
 14 17  1  0
 13 18  1  0
  4 19  1  0
M  END
>  <fitscore>  (35) 
0.159056

$$$$
sQC_Substrate__STK674854_rank_35
     RDKit          3D

 19 19  0  0  0  0  0  0  0  0999 V2000
   35.4939   45.2596   55.0499 O   0  0  0  0  0  0  0  0  0  1  0  0
   36.2031   44.6908   54.0105 C   0  0  0  0  0  0  0  0  0  2  0  0
   35.5350   44.3916   52.9766 O   0  0  0  0  0  0  0  0  0  3  0  0
   37.6374   44.4451   54.0894 C   0  0  0  0  0  0  0  0  0  4  0  0
   38.3272   44.6687   55.1808 C   0  0  0  0  0  0  0  0  0  5  0  0
   39.4286   43.8717   55.6803 C   0  0  0  0  0  0  0  0  0  6  0  0
   40.1627   43.2550   54.8334 O   0  0  0  0  0  0  0  0  0  7  0  0
   39.7659   43.7192   57.0959 C   0  0  0  0  0  0  0  0  0  8  0  0
   38.8577   43.1699   57.9712 C   0  0  0  0  0  0  0  0  0  9  0  0
   37.5858   42.7422   57.5569 O   0  0  0  0  0  0  0  0  0 10  0  0
   39.1871   43.0245   59.3086 C   0  0  0  0  0  0  0  0  0 11  0  0
   38.2603   42.4739   60.1541 F   0  0  0  0  0  0  0  0  0 12  0  0
   40.3971   43.4117   59.7977 C   0  0  0  0  0  0  0  0  0 13  0  0
   41.3184   43.9625   58.9402 C   0  0  0  0  0  0  0  0  0 14  0  0
   40.9909   44.1111   57.5914 C   0  0  0  0  0  0  0  0  0 15  0  0
   41.8928   44.6546   56.7316 F   0  0  0  0  0  0  0  0  0 16  0  0
   42.5282   44.3610   59.3741 F   0  0  0  0  0  0  0  0  0 17  0  0
   40.6706   43.2457   61.1254 F   0  0  0  0  0  0  0  0  0 18  0  0
   38.2918   43.9471   52.9378 N   0  0  0  0  0  0  0  0  0 19  0  0
  1  2  1  0
  2  3  2  0
  2  4  1  0
  4  5  2  0
  5  6  1  0
  6  7  2  0
  6  8  1  0
  8  9  2  0
  9 10  1  0
  9 11  1  0
 11 12  1  0
 11 13  2  0
 13 14  1  0
 14 15  2  0
  8 15  1  0
 15 16  1  0
 14 17  1  0
 13 18  1  0
  4 19  1  0
M  END
>  <fitscore>  (36) 
0.140595

$$$$
sQC_Substrate__STK674854_rank_36
     RDKit          3D

 19 19  0  0  0  0  0  0  0  0999 V2000
   36.8219   43.3942   53.2641 O   0  0  0  0  0  0  0  0  0  1  0  0
   36.2549   44.5155   53.8369 C   0  0  0  0  0  0  0  0  0  2  0  0
   35.3279   45.0717   53.1766 O   0  0  0  0  0  0  0  0  0  3  0  0
   36.6914   45.0362   55.1262 C   0  0  0  0  0  0  0  0  0  4  0  0
   37.5335   44.3894   55.8939 C   0  0  0  0  0  0  0  0  0  5  0  0
   38.3186   44.9512   56.9737 C   0  0  0  0  0  0  0  0  0  6  0  0
   38.5734   46.2046   56.9485 O   0  0  0  0  0  0  0  0  0  7  0  0
   38.8464   44.1826   58.1014 C   0  0  0  0  0  0  0  0  0  8  0  0
   40.1288   43.6856   58.0639 C   0  0  0  0  0  0  0  0  0  9  0  0
   40.9746   43.8839   56.9604 O   0  0  0  0  0  0  0  0  0 10  0  0
   40.6221   42.9635   59.1378 C   0  0  0  0  0  0  0  0  0 11  0  0
   41.9031   42.4824   59.0690 F   0  0  0  0  0  0  0  0  0 12  0  0
   39.8724   42.7231   60.2484 C   0  0  0  0  0  0  0  0  0 13  0  0
   38.5892   43.2106   60.3059 C   0  0  0  0  0  0  0  0  0 14  0  0
   38.0876   43.9390   59.2258 C   0  0  0  0  0  0  0  0  0 15  0  0
   36.8196   44.4274   59.2691 F   0  0  0  0  0  0  0  0  0 16  0  0
   37.8078   43.0003   61.3809 F   0  0  0  0  0  0  0  0  0 17  0  0
   40.4080   42.0050   61.2793 F   0  0  0  0  0  0  0  0  0 18  0  0
   36.1781   46.2857   55.5478 N   0  0  0  0  0  0  0  0  0 19  0  0
  1  2  1  0
  2  3  2  0
  2  4  1  0
  4  5  2  0
  5  6  1  0
  6  7  2  0
  6  8  1  0
  8  9  2  0
  9 10  1  0
  9 11  1  0
 11 12  1  0
 11 13  2  0
 13 14  1  0
 14 15  2  0
  8 15  1  0
 15 16  1  0
 14 17  1  0
 13 18  1  0
  4 19  1  0
M  END
>  <fitscore>  (37) 
0.132347

$$$$
sQC_Substrate__STK674854_rank_37
     RDKit          3D

 19 19  0  0  0  0  0  0  0  0999 V2000
   37.6361   43.1547   51.7840 O   0  0  0  0  0  0  0  0  0  1  0  0
   38.6362   43.1479   52.7364 C   0  0  0  0  0  0  0  0  0  2  0  0
   39.8103   42.9343   52.3116 O   0  0  0  0  0  0  0  0  0  3  0  0
   38.3657   43.3727   54.1507 C   0  0  0  0  0  0  0  0  0  4  0  0
   39.3113   43.6789   55.0045 C   0  0  0  0  0  0  0  0  0  5  0  0
   39.3024   44.7879   55.9361 C   0  0  0  0  0  0  0  0  0  6  0  0
   38.9006   45.9278   55.5168 O   0  0  0  0  0  0  0  0  0  7  0  0
   39.7234   44.6987   57.3346 C   0  0  0  0  0  0  0  0  0  8  0  0
   38.8204   44.3459   58.3108 C   0  0  0  0  0  0  0  0  0  9  0  0
   37.4759   44.0649   58.0181 O   0  0  0  0  0  0  0  0  0 10  0  0
   39.2287   44.2588   59.6314 C   0  0  0  0  0  0  0  0  0 11  0  0
   38.3049   43.9050   60.5793 F   0  0  0  0  0  0  0  0  0 12  0  0
   40.5124   44.5138   60.0059 C   0  0  0  0  0  0  0  0  0 13  0  0
   41.4298   44.8678   59.0465 C   0  0  0  0  0  0  0  0  0 14  0  0
   41.0230   44.9568   57.7141 C   0  0  0  0  0  0  0  0  0 15  0  0
   41.9202   45.3060   56.7542 F   0  0  0  0  0  0  0  0  0 16  0  0
   42.7106   45.1299   59.3652 F   0  0  0  0  0  0  0  0  0 17  0  0
   40.8619   44.4133   61.3224 F   0  0  0  0  0  0  0  0  0 18  0  0
   37.0293   43.2522   54.6002 N   0  0  0  0  0  0  0  0  0 19  0  0
  1  2  1  0
  2  3  2  0
  2  4  1  0
  4  5  2  0
  5  6  1  0
  6  7  2  0
  6  8  1  0
  8  9  2  0
  9 10  1  0
  9 11  1  0
 11 12  1  0
 11 13  2  0
 13 14  1  0
 14 15  2  0
  8 15  1  0
 15 16  1  0
 14 17  1  0
 13 18  1  0
  4 19  1  0
M  END
>  <fitscore>  (38) 
0.127148

$$$$
sQC_Substrate__STK674854_rank_38
     RDKit          3D

 19 19  0  0  0  0  0  0  0  0999 V2000
   37.6812   42.7458   52.4518 O   0  0  0  0  0  0  0  0  0  1  0  0
   36.9475   43.9015   52.6343 C   0  0  0  0  0  0  0  0  0  2  0  0
   36.4480   44.4165   51.5903 O   0  0  0  0  0  0  0  0  0  3  0  0
   36.7538   44.5012   53.9483 C   0  0  0  0  0  0  0  0  0  4  0  0
   37.5370   44.2314   54.9636 C   0  0  0  0  0  0  0  0  0  5  0  0
   37.6605   45.0030   56.1831 C   0  0  0  0  0  0  0  0  0  6  0  0
   36.7879   45.9086   56.4177 O   0  0  0  0  0  0  0  0  0  7  0  0
   38.7203   44.8206   57.1754 C   0  0  0  0  0  0  0  0  0  8  0  0
   38.5725   43.9018   58.1887 C   0  0  0  0  0  0  0  0  0  9  0  0
   37.4174   43.1139   58.3198 O   0  0  0  0  0  0  0  0  0 10  0  0
   39.5828   43.7319   59.1207 C   0  0  0  0  0  0  0  0  0 11  0  0
   39.4044   42.8088   60.1173 F   0  0  0  0  0  0  0  0  0 12  0  0
   40.7366   44.4526   59.0705 C   0  0  0  0  0  0  0  0  0 13  0  0
   40.9041   45.3753   58.0665 C   0  0  0  0  0  0  0  0  0 14  0  0
   39.8885   45.5501   57.1248 C   0  0  0  0  0  0  0  0  0 15  0  0
   40.0407   46.4596   56.1259 F   0  0  0  0  0  0  0  0  0 16  0  0
   42.0258   46.1127   57.9731 F   0  0  0  0  0  0  0  0  0 17  0  0
   41.7011   44.2454   60.0151 F   0  0  0  0  0  0  0  0  0 18  0  0
   35.6775   45.4045   54.1157 N   0  0  0  0  0  0  0  0  0 19  0  0
  1  2  1  0
  2  3  2  0
  2  4  1  0
  4  5  2  0
  5  6  1  0
  6  7  2  0
  6  8  1  0
  8  9  2  0
  9 10  1  0
  9 11  1  0
 11 12  1  0
 11 13  2  0
 13 14  1  0
 14 15  2  0
  8 15  1  0
 15 16  1  0
 14 17  1  0
 13 18  1  0
  4 19  1  0
M  END
>  <fitscore>  (39) 
0.125746

$$$$
sQC_Substrate__STK674854_rank_39
     RDKit          3D

 19 19  0  0  0  0  0  0  0  0999 V2000
   37.2980   44.5538   52.4962 O   0  0  0  0  0  0  0  0  0  1  0  0
   36.3950   45.1134   53.3786 C   0  0  0  0  0  0  0  0  0  2  0  0
   35.2617   45.4162   52.9007 O   0  0  0  0  0  0  0  0  0  3  0  0
   36.7186   45.3458   54.7804 C   0  0  0  0  0  0  0  0  0  4  0  0
   37.8736   45.0069   55.2981 C   0  0  0  0  0  0  0  0  0  5  0  0
   38.3212   45.2724   56.6498 C   0  0  0  0  0  0  0  0  0  6  0  0
   37.6649   46.1184   57.3498 O   0  0  0  0  0  0  0  0  0  7  0  0
   39.4800   44.6377   57.2787 C   0  0  0  0  0  0  0  0  0  8  0  0
   39.3078   43.5974   58.1624 C   0  0  0  0  0  0  0  0  0  9  0  0
   38.0358   43.1076   58.5006 O   0  0  0  0  0  0  0  0  0 10  0  0
   40.4104   42.9990   58.7492 C   0  0  0  0  0  0  0  0  0 11  0  0
   40.2048   41.9656   59.6248 F   0  0  0  0  0  0  0  0  0 12  0  0
   41.6802   43.4090   58.4794 C   0  0  0  0  0  0  0  0  0 13  0  0
   41.8739   44.4464   57.5997 C   0  0  0  0  0  0  0  0  0 14  0  0
   40.7656   45.0526   57.0057 C   0  0  0  0  0  0  0  0  0 15  0  0
   40.9425   46.0801   56.1334 F   0  0  0  0  0  0  0  0  0 16  0  0
   43.1088   44.8888   57.2998 F   0  0  0  0  0  0  0  0  0 17  0  0
   42.7323   42.7840   59.0858 F   0  0  0  0  0  0  0  0  0 18  0  0
   35.7394   45.9604   55.5965 N   0  0  0  0  0  0  0  0  0 19  0  0
  1  2  1  0
  2  3  2  0
  2  4  1  0
  4  5  2  0
  5  6  1  0
  6  7  2  0
  6  8  1  0
  8  9  2  0
  9 10  1  0
  9 11  1  0
 11 12  1  0
 11 13  2  0
 13 14  1  0
 14 15  2  0
  8 15  1  0
 15 16  1  0
 14 17  1  0
 13 18  1  0
  4 19  1  0
M  END
>  <fitscore>  (40) 
0.124207

$$$$
