sQC_Substrate__STK936575_rank_0
     RDKit          3D

 20 22  0  0  0  0  0  0  0  0999 V2000
   39.0314   43.2697   55.7472 C   0  0  0  0  0  0  0  0  0  1  0  0
   39.4109   42.7680   54.4927 C   0  0  0  0  0  0  0  0  0  2  0  0
   38.9954   43.3262   53.3068 C   0  0  0  0  0  0  0  0  0  3  0  0
   38.1643   44.4344   53.3297 C   0  0  0  0  0  0  0  0  0  4  0  0
   37.7716   44.9530   54.5424 C   0  0  0  0  0  0  0  0  0  5  0  0
   38.2124   44.3603   55.7352 C   0  0  0  0  0  0  0  0  0  6  0  0
   37.5865   45.2087   52.3879 N   0  0  0  0  0  0  0  0  0  7  0  0
   36.8543   46.1827   52.9743 C   0  0  0  0  0  0  0  0  0  8  0  0
   36.9749   46.0164   54.3033 N   0  0  0  0  0  0  0  0  0  9  0  0
   39.8449   43.4341   58.3620 S   0  0  1  0  0  6  0  0  0 10  0  0
   40.9641   42.6951   59.0975 O   0  0  0  0  0  0  0  0  0 11  0  0
   40.3885   44.8282   58.1193 O   0  0  0  0  0  0  0  0  0 12  0  0
   39.0524   43.8629   60.8420 C   0  0  0  0  0  0  0  0  0 13  0  0
   39.5338   42.6367   56.9089 N   0  0  0  0  0  0  0  0  0 14  0  0
   39.1285   45.1572   61.2539 C   0  0  0  0  0  0  0  0  0 15  0  0
   39.6534   45.5145   62.5006 C   0  0  0  0  0  0  0  0  0 16  0  0
   40.0962   44.5112   63.3094 C   0  0  0  0  0  0  0  0  0 17  0  0
   40.0313   43.1837   62.9165 C   0  0  0  0  0  0  0  0  0 18  0  0
   39.5018   42.8569   61.6651 C   0  0  0  0  0  0  0  0  0 19  0  0
   38.4785   43.5015   59.4843 C   0  0  0  0  0  0  0  0  0 20  0  0
  1  2  2  0
  2  3  1  0
  3  4  2  0
  4  5  1  0
  5  6  2  0
  6  1  1  0
  4  7  1  0
  7  8  1  0
  8  9  2  0
  9  5  1  0
 10 11  2  0
 10 12  2  0
  1 14  1  0
 10 14  1  6
 13 15  2  0
 15 16  1  0
 16 17  2  0
 17 18  1  0
 18 19  2  0
 19 13  1  0
 20 13  1  6
 20 10  1  0
M  END
>  <fitscore>  (1) 
0.496131

$$$$
sQC_Substrate__STK936575_rank_1
     RDKit          3D

 20 22  0  0  0  0  0  0  0  0999 V2000
   38.5802   43.1690   56.3989 C   0  0  0  0  0  0  0  0  0  1  0  0
   39.3396   42.7678   55.2891 C   0  0  0  0  0  0  0  0  0  2  0  0
   39.0437   43.1506   54.0020 C   0  0  0  0  0  0  0  0  0  3  0  0
   37.9504   43.9691   53.7691 C   0  0  0  0  0  0  0  0  0  4  0  0
   37.1827   44.3816   54.8341 C   0  0  0  0  0  0  0  0  0  5  0  0
   37.5106   43.9734   56.1357 C   0  0  0  0  0  0  0  0  0  6  0  0
   37.3906   44.5176   52.6708 N   0  0  0  0  0  0  0  0  0  7  0  0
   36.3091   45.2509   53.0192 C   0  0  0  0  0  0  0  0  0  8  0  0
   36.1893   45.1607   54.3556 N   0  0  0  0  0  0  0  0  0  9  0  0
   40.1603   43.5108   58.6153 S   0  0  1  0  0  6  0  0  0 10  0  0
   41.2910   42.5198   58.8968 O   0  0  0  0  0  0  0  0  0 11  0  0
   40.8131   44.6434   57.8477 O   0  0  0  0  0  0  0  0  0 12  0  0
   40.7945   44.7674   60.8471 C   0  0  0  0  0  0  0  0  0 13  0  0
   38.9837   42.7393   57.6854 N   0  0  0  0  0  0  0  0  0 14  0  0
   41.7915   44.0444   61.4248 C   0  0  0  0  0  0  0  0  0 15  0  0
   42.8968   44.6492   62.0329 C   0  0  0  0  0  0  0  0  0 16  0  0
   42.9505   46.0108   62.0318 C   0  0  0  0  0  0  0  0  0 17  0  0
   41.9495   46.7735   61.4509 C   0  0  0  0  0  0  0  0  0 18  0  0
   40.8571   46.1412   60.8508 C   0  0  0  0  0  0  0  0  0 19  0  0
   39.6056   44.0868   60.1937 C   0  0  0  0  0  0  0  0  0 20  0  0
  1  2  2  0
  2  3  1  0
  3  4  2  0
  4  5  1  0
  5  6  2  0
  6  1  1  0
  4  7  1  0
  7  8  1  0
  8  9  2  0
  9  5  1  0
 10 11  2  0
 10 12  2  0
  1 14  1  0
 10 14  1  6
 13 15  2  0
 15 16  1  0
 16 17  2  0
 17 18  1  0
 18 19  2  0
 19 13  1  0
 20 13  1  6
 20 10  1  0
M  END
>  <fitscore>  (2) 
0.490745

$$$$
sQC_Substrate__STK936575_rank_2
     RDKit          3D

 20 22  0  0  0  0  0  0  0  0999 V2000
   38.1085   43.7394   56.3260 C   0  0  0  0  0  0  0  0  0  1  0  0
   39.2554   43.7093   55.5177 C   0  0  0  0  0  0  0  0  0  2  0  0
   39.2929   44.2447   54.2517 C   0  0  0  0  0  0  0  0  0  3  0  0
   38.1577   44.8455   53.7324 C   0  0  0  0  0  0  0  0  0  4  0  0
   37.0145   44.8928   54.4970 C   0  0  0  0  0  0  0  0  0  5  0  0
   37.0082   44.3370   55.7852 C   0  0  0  0  0  0  0  0  0  6  0  0
   37.8521   45.4517   52.5663 N   0  0  0  0  0  0  0  0  0  7  0  0
   36.5661   45.8696   52.5846 C   0  0  0  0  0  0  0  0  0  8  0  0
   36.0581   45.5201   53.7798 N   0  0  0  0  0  0  0  0  0  9  0  0
   39.4801   43.4015   58.6777 S   0  0  1  0  0  6  0  0  0 10  0  0
   40.6662   42.5779   58.1732 O   0  0  0  0  0  0  0  0  0 11  0  0
   39.9645   44.8379   58.6616 O   0  0  0  0  0  0  0  0  0 12  0  0
   40.4379   43.2266   61.1300 C   0  0  0  0  0  0  0  0  0 13  0  0
   38.1815   43.1815   57.6244 N   0  0  0  0  0  0  0  0  0 14  0  0
   40.6043   44.4606   61.6779 C   0  0  0  0  0  0  0  0  0 15  0  0
   41.7469   44.8058   62.4078 C   0  0  0  0  0  0  0  0  0 16  0  0
   42.7099   43.8537   62.5594 C   0  0  0  0  0  0  0  0  0 17  0  0
   42.5678   42.5881   62.0126 C   0  0  0  0  0  0  0  0  0 18  0  0
   41.4152   42.2720   61.2882 C   0  0  0  0  0  0  0  0  0 19  0  0
   39.1886   42.8771   60.3423 C   0  0  0  0  0  0  0  0  0 20  0  0
  1  2  2  0
  2  3  1  0
  3  4  2  0
  4  5  1  0
  5  6  2  0
  6  1  1  0
  4  7  1  0
  7  8  1  0
  8  9  2  0
  9  5  1  0
 10 11  2  0
 10 12  2  0
  1 14  1  0
 10 14  1  6
 13 15  2  0
 15 16  1  0
 16 17  2  0
 17 18  1  0
 18 19  2  0
 19 13  1  0
 20 13  1  6
 20 10  1  0
M  END
>  <fitscore>  (3) 
0.480093

$$$$
sQC_Substrate__STK936575_rank_3
     RDKit          3D

 20 22  0  0  0  0  0  0  0  0999 V2000
   39.0275   43.8638   56.3666 C   0  0  0  0  0  0  0  0  0  1  0  0
   39.6151   43.2814   55.2330 C   0  0  0  0  0  0  0  0  0  2  0  0
   39.2786   43.6390   53.9486 C   0  0  0  0  0  0  0  0  0  3  0  0
   38.3184   44.6164   53.7430 C   0  0  0  0  0  0  0  0  0  4  0  0
   37.7209   45.2089   54.8318 C   0  0  0  0  0  0  0  0  0  5  0  0
   38.0858   44.8217   56.1300 C   0  0  0  0  0  0  0  0  0  6  0  0
   37.7657   45.1916   52.6549 N   0  0  0  0  0  0  0  0  0  7  0  0
   36.8519   46.1143   53.0324 C   0  0  0  0  0  0  0  0  0  8  0  0
   36.8317   46.1174   54.3771 N   0  0  0  0  0  0  0  0  0  9  0  0
   39.1944   44.3062   59.0689 S   0  0  1  0  0  6  0  0  0 10  0  0
   40.5354   44.8331   59.5826 O   0  0  0  0  0  0  0  0  0 11  0  0
   38.3586   45.5446   58.8119 O   0  0  0  0  0  0  0  0  0 12  0  0
   39.5688   42.3933   60.8473 C   0  0  0  0  0  0  0  0  0 13  0  0
   39.4620   43.4420   57.6456 N   0  0  0  0  0  0  0  0  0 14  0  0
   39.2482   41.1638   61.3333 C   0  0  0  0  0  0  0  0  0 15  0  0
   40.2205   40.2515   61.7572 C   0  0  0  0  0  0  0  0  0 16  0  0
   41.5254   40.6342   61.6691 C   0  0  0  0  0  0  0  0  0 17  0  0
   41.8819   41.8803   61.1782 C   0  0  0  0  0  0  0  0  0 18  0  0
   40.8885   42.7709   60.7620 C   0  0  0  0  0  0  0  0  0 19  0  0
   38.4947   43.3649   60.3938 C   0  0  0  0  0  0  0  0  0 20  0  0
  1  2  2  0
  2  3  1  0
  3  4  2  0
  4  5  1  0
  5  6  2  0
  6  1  1  0
  4  7  1  0
  7  8  1  0
  8  9  2  0
  9  5  1  0
 10 11  2  0
 10 12  2  0
  1 14  1  0
 10 14  1  6
 13 15  2  0
 15 16  1  0
 16 17  2  0
 17 18  1  0
 18 19  2  0
 19 13  1  0
 20 13  1  6
 20 10  1  0
M  END
>  <fitscore>  (4) 
0.442664

$$$$
sQC_Substrate__STK936575_rank_4
     RDKit          3D

 20 22  0  0  0  0  0  0  0  0999 V2000
   37.8128   43.5240   56.3244 C   0  0  0  0  0  0  0  0  0  1  0  0
   38.5199   42.9561   55.2534 C   0  0  0  0  0  0  0  0  0  2  0  0
   38.5595   43.5201   54.0000 C   0  0  0  0  0  0  0  0  0  3  0  0
   37.8772   44.7023   53.7631 C   0  0  0  0  0  0  0  0  0  4  0  0
   37.1726   45.2872   54.7903 C   0  0  0  0  0  0  0  0  0  5  0  0
   37.1513   44.6867   56.0581 C   0  0  0  0  0  0  0  0  0  6  0  0
   37.7074   45.5032   52.6906 N   0  0  0  0  0  0  0  0  0  7  0  0
   36.9262   46.5572   53.0186 C   0  0  0  0  0  0  0  0  0  8  0  0
   36.6015   46.4149   54.3159 N   0  0  0  0  0  0  0  0  0  9  0  0
   39.1320   43.0158   58.6754 S   0  0  1  0  0  6  0  0  0 10  0  0
   38.5751   42.9097   60.0960 O   0  0  0  0  0  0  0  0  0 11  0  0
   40.0977   41.8546   58.5447 O   0  0  0  0  0  0  0  0  0 12  0  0
   41.4889   44.1988   58.5868 C   0  0  0  0  0  0  0  0  0 13  0  0
   37.8556   42.8766   57.5820 N   0  0  0  0  0  0  0  0  0 14  0  0
   42.1962   44.1827   57.4249 C   0  0  0  0  0  0  0  0  0 15  0  0
   43.5577   43.8630   57.3837 C   0  0  0  0  0  0  0  0  0 16  0  0
   44.1706   43.5615   58.5628 C   0  0  0  0  0  0  0  0  0 17  0  0
   43.4755   43.5698   59.7619 C   0  0  0  0  0  0  0  0  0 18  0  0
   42.1159   43.8932   59.7720 C   0  0  0  0  0  0  0  0  0 19  0  0
   40.0123   44.5491   58.6045 C   0  0  0  0  0  0  0  0  0 20  0  0
  1  2  2  0
  2  3  1  0
  3  4  2  0
  4  5  1  0
  5  6  2  0
  6  1  1  0
  4  7  1  0
  7  8  1  0
  8  9  2  0
  9  5  1  0
 10 11  2  0
 10 12  2  0
  1 14  1  0
 10 14  1  6
 13 15  2  0
 15 16  1  0
 16 17  2  0
 17 18  1  0
 18 19  2  0
 19 13  1  0
 20 13  1  6
 20 10  1  0
M  END
>  <fitscore>  (5) 
0.430367

$$$$
sQC_Substrate__STK936575_rank_5
     RDKit          3D

 20 22  0  0  0  0  0  0  0  0999 V2000
   38.2271   43.7021   56.2799 C   0  0  0  0  0  0  0  0  0  1  0  0
   38.8389   43.2437   55.1030 C   0  0  0  0  0  0  0  0  0  2  0  0
   38.5648   43.7709   53.8630 C   0  0  0  0  0  0  0  0  0  3  0  0
   37.6462   44.8017   53.7489 C   0  0  0  0  0  0  0  0  0  4  0  0
   37.0265   45.2760   54.8823 C   0  0  0  0  0  0  0  0  0  5  0  0
   37.3274   44.7167   56.1332 C   0  0  0  0  0  0  0  0  0  6  0  0
   37.1557   45.5284   52.7234 N   0  0  0  0  0  0  0  0  0  7  0  0
   36.2588   46.4306   53.1822 C   0  0  0  0  0  0  0  0  0  8  0  0
   36.1862   46.2669   54.5151 N   0  0  0  0  0  0  0  0  0  9  0  0
   38.2115   43.7457   59.0228 S   0  0  1  0  0  6  0  0  0 10  0  0
   36.8147   44.3653   58.9528 O   0  0  0  0  0  0  0  0  0 11  0  0
   38.1045   42.6539   60.0691 O   0  0  0  0  0  0  0  0  0 12  0  0
   40.7060   44.5013   59.4331 C   0  0  0  0  0  0  0  0  0 13  0  0
   38.5970   43.1081   57.5099 N   0  0  0  0  0  0  0  0  0 14  0  0
   41.5136   44.9377   58.4291 C   0  0  0  0  0  0  0  0  0 15  0  0
   42.8209   44.4674   58.2643 C   0  0  0  0  0  0  0  0  0 16  0  0
   43.2746   43.5407   59.1544 C   0  0  0  0  0  0  0  0  0 17  0  0
   42.4746   43.0777   60.1872 C   0  0  0  0  0  0  0  0  0 18  0  0
   41.1726   43.5659   60.3269 C   0  0  0  0  0  0  0  0  0 19  0  0
   39.2912   45.0275   59.5903 C   0  0  0  0  0  0  0  0  0 20  0  0
  1  2  2  0
  2  3  1  0
  3  4  2  0
  4  5  1  0
  5  6  2  0
  6  1  1  0
  4  7  1  0
  7  8  1  0
  8  9  2  0
  9  5  1  0
 10 11  2  0
 10 12  2  0
  1 14  1  0
 10 14  1  6
 13 15  2  0
 15 16  1  0
 16 17  2  0
 17 18  1  0
 18 19  2  0
 19 13  1  0
 20 13  1  6
 20 10  1  0
M  END
>  <fitscore>  (6) 
0.411348

$$$$
sQC_Substrate__STK936575_rank_6
     RDKit          3D

 20 22  0  0  0  0  0  0  0  0999 V2000
   38.4751   44.5341   56.3001 C   0  0  0  0  0  0  0  0  0  1  0  0
   39.5299   44.3764   55.3881 C   0  0  0  0  0  0  0  0  0  2  0  0
   39.4387   44.7472   54.0671 C   0  0  0  0  0  0  0  0  0  3  0  0
   38.2608   45.3035   53.5955 C   0  0  0  0  0  0  0  0  0  4  0  0
   37.2052   45.4726   54.4620 C   0  0  0  0  0  0  0  0  0  5  0  0
   37.3294   45.0836   55.8042 C   0  0  0  0  0  0  0  0  0  6  0  0
   37.8397   45.7649   52.3996 N   0  0  0  0  0  0  0  0  0  7  0  0
   36.5667   46.2108   52.4972 C   0  0  0  0  0  0  0  0  0  8  0  0
   36.1844   46.0262   53.7733 N   0  0  0  0  0  0  0  0  0  9  0  0
   39.8312   43.0135   58.1371 S   0  0  1  0  0  6  0  0  0 10  0  0
   40.1432   42.0859   56.9616 O   0  0  0  0  0  0  0  0  0 11  0  0
   41.1502   43.6825   58.4699 O   0  0  0  0  0  0  0  0  0 12  0  0
   40.1983   42.3311   60.6593 C   0  0  0  0  0  0  0  0  0 13  0  0
   38.6792   44.1425   57.6445 N   0  0  0  0  0  0  0  0  0 14  0  0
   41.4045   41.7349   60.8596 C   0  0  0  0  0  0  0  0  0 15  0  0
   42.2244   42.0550   61.9471 C   0  0  0  0  0  0  0  0  0 16  0  0
   41.7741   42.9997   62.8198 C   0  0  0  0  0  0  0  0  0 17  0  0
   40.5495   43.6239   62.6413 C   0  0  0  0  0  0  0  0  0 18  0  0
   39.7519   43.2835   61.5453 C   0  0  0  0  0  0  0  0  0 19  0  0
   39.3274   41.9659   59.4711 C   0  0  0  0  0  0  0  0  0 20  0  0
  1  2  2  0
  2  3  1  0
  3  4  2  0
  4  5  1  0
  5  6  2  0
  6  1  1  0
  4  7  1  0
  7  8  1  0
  8  9  2  0
  9  5  1  0
 10 11  2  0
 10 12  2  0
  1 14  1  0
 10 14  1  6
 13 15  2  0
 15 16  1  0
 16 17  2  0
 17 18  1  0
 18 19  2  0
 19 13  1  0
 20 13  1  6
 20 10  1  0
M  END
>  <fitscore>  (7) 
0.369773

$$$$
sQC_Substrate__STK936575_rank_7
     RDKit          3D

 20 22  0  0  0  0  0  0  0  0999 V2000
   38.8368   43.4278   56.3553 C   0  0  0  0  0  0  0  0  0  1  0  0
   37.5432   43.0545   55.9594 C   0  0  0  0  0  0  0  0  0  2  0  0
   36.9022   43.6105   54.8774 C   0  0  0  0  0  0  0  0  0  3  0  0
   37.5453   44.5848   54.1314 C   0  0  0  0  0  0  0  0  0  4  0  0
   38.8147   44.9758   54.4911 C   0  0  0  0  0  0  0  0  0  5  0  0
   39.4417   44.3896   55.6009 C   0  0  0  0  0  0  0  0  0  6  0  0
   37.2229   45.3174   53.0452 N   0  0  0  0  0  0  0  0  0  7  0  0
   38.2444   46.1431   52.7234 C   0  0  0  0  0  0  0  0  0  8  0  0
   39.2215   45.9249   53.6213 N   0  0  0  0  0  0  0  0  0  9  0  0
   40.3716   43.5492   58.6259 S   0  0  1  0  0  6  0  0  0 10  0  0
   41.6400   42.7232   58.8464 O   0  0  0  0  0  0  0  0  0 11  0  0
   40.8610   44.8942   58.1261 O   0  0  0  0  0  0  0  0  0 12  0  0
   38.5640   44.8119   60.0751 C   0  0  0  0  0  0  0  0  0 13  0  0
   39.4171   42.7768   57.4697 N   0  0  0  0  0  0  0  0  0 14  0  0
   37.2552   44.5000   59.8741 C   0  0  0  0  0  0  0  0  0 15  0  0
   36.2658   45.4801   59.7406 C   0  0  0  0  0  0  0  0  0 16  0  0
   36.6550   46.7837   59.8187 C   0  0  0  0  0  0  0  0  0 17  0  0
   37.9810   47.1315   60.0228 C   0  0  0  0  0  0  0  0  0 18  0  0
   38.9475   46.1303   60.1526 C   0  0  0  0  0  0  0  0  0 19  0  0
   39.6183   43.7294   60.2168 C   0  0  0  0  0  0  0  0  0 20  0  0
  1  2  2  0
  2  3  1  0
  3  4  2  0
  4  5  1  0
  5  6  2  0
  6  1  1  0
  4  7  1  0
  7  8  1  0
  8  9  2  0
  9  5  1  0
 10 11  2  0
 10 12  2  0
  1 14  1  0
 10 14  1  6
 13 15  2  0
 15 16  1  0
 16 17  2  0
 17 18  1  0
 18 19  2  0
 19 13  1  0
 20 13  1  6
 20 10  1  0
M  END
>  <fitscore>  (8) 
0.369634

$$$$
sQC_Substrate__STK936575_rank_8
     RDKit          3D

 20 22  0  0  0  0  0  0  0  0999 V2000
   39.0659   43.3743   55.4789 C   0  0  0  0  0  0  0  0  0  1  0  0
   39.3988   43.2755   54.1192 C   0  0  0  0  0  0  0  0  0  2  0  0
   38.7648   44.0019   53.1389 C   0  0  0  0  0  0  0  0  0  3  0  0
   37.7487   44.8764   53.4886 C   0  0  0  0  0  0  0  0  0  4  0  0
   37.3954   44.9985   54.8130 C   0  0  0  0  0  0  0  0  0  5  0  0
   38.0613   44.2430   55.7897 C   0  0  0  0  0  0  0  0  0  6  0  0
   36.9414   45.7162   52.8080 N   0  0  0  0  0  0  0  0  0  7  0  0
   36.1059   46.3496   53.6622 C   0  0  0  0  0  0  0  0  0  8  0  0
   36.3939   45.9001   54.8965 N   0  0  0  0  0  0  0  0  0  9  0  0
   40.1924   43.1187   57.9672 S   0  0  1  0  0  6  0  0  0 10  0  0
   41.5435   42.5162   58.3560 O   0  0  0  0  0  0  0  0  0 11  0  0
   40.4048   44.6192   58.0101 O   0  0  0  0  0  0  0  0  0 12  0  0
   39.5687   43.2218   60.5289 C   0  0  0  0  0  0  0  0  0 13  0  0
   39.7963   42.6007   56.4119 N   0  0  0  0  0  0  0  0  0 14  0  0
   40.6196   42.6655   61.1898 C   0  0  0  0  0  0  0  0  0 15  0  0
   41.1121   43.1931   62.3883 C   0  0  0  0  0  0  0  0  0 16  0  0
   40.4989   44.3028   62.8878 C   0  0  0  0  0  0  0  0  0 17  0  0
   39.4263   44.8912   62.2365 C   0  0  0  0  0  0  0  0  0 18  0  0
   38.9561   44.3417   61.0406 C   0  0  0  0  0  0  0  0  0 19  0  0
   39.0533   42.6299   59.2299 C   0  0  0  0  0  0  0  0  0 20  0  0
  1  2  2  0
  2  3  1  0
  3  4  2  0
  4  5  1  0
  5  6  2  0
  6  1  1  0
  4  7  1  0
  7  8  1  0
  8  9  2  0
  9  5  1  0
 10 11  2  0
 10 12  2  0
  1 14  1  0
 10 14  1  6
 13 15  2  0
 15 16  1  0
 16 17  2  0
 17 18  1  0
 18 19  2  0
 19 13  1  0
 20 13  1  6
 20 10  1  0
M  END
>  <fitscore>  (9) 
0.367709

$$$$
sQC_Substrate__STK936575_rank_9
     RDKit          3D

 20 22  0  0  0  0  0  0  0  0999 V2000
   38.0614   43.7022   56.3612 C   0  0  0  0  0  0  0  0  0  1  0  0
   38.9537   43.2464   55.3786 C   0  0  0  0  0  0  0  0  0  2  0  0
   39.1504   43.9005   54.1852 C   0  0  0  0  0  0  0  0  0  3  0  0
   38.4456   45.0638   53.9218 C   0  0  0  0  0  0  0  0  0  4  0  0
   37.5615   45.5398   54.8627 C   0  0  0  0  0  0  0  0  0  5  0  0
   37.3827   44.8491   56.0707 C   0  0  0  0  0  0  0  0  0  6  0  0
   38.3948   45.9311   52.8895 N   0  0  0  0  0  0  0  0  0  7  0  0
   37.5142   46.9213   53.1593 C   0  0  0  0  0  0  0  0  0  8  0  0
   37.0055   46.6709   54.3788 N   0  0  0  0  0  0  0  0  0  9  0  0
   39.0017   43.1319   58.8745 S   0  0  1  0  0  6  0  0  0 10  0  0
   38.2036   42.9678   60.1691 O   0  0  0  0  0  0  0  0  0 11  0  0
   40.0256   42.0142   58.9004 O   0  0  0  0  0  0  0  0  0 12  0  0
   40.8475   44.5716   60.0920 C   0  0  0  0  0  0  0  0  0 13  0  0
   37.9501   42.9686   57.5662 N   0  0  0  0  0  0  0  0  0 14  0  0
   42.1057   44.1265   59.8287 C   0  0  0  0  0  0  0  0  0 15  0  0
   43.0772   43.9991   60.8274 C   0  0  0  0  0  0  0  0  0 16  0  0
   42.7233   44.3397   62.0984 C   0  0  0  0  0  0  0  0  0 17  0  0
   41.4490   44.7961   62.3966 C   0  0  0  0  0  0  0  0  0 18  0  0
   40.4993   44.9130   61.3780 C   0  0  0  0  0  0  0  0  0 19  0  0
   39.8116   44.7008   58.9904 C   0  0  0  0  0  0  0  0  0 20  0  0
  1  2  2  0
  2  3  1  0
  3  4  2  0
  4  5  1  0
  5  6  2  0
  6  1  1  0
  4  7  1  0
  7  8  1  0
  8  9  2  0
  9  5  1  0
 10 11  2  0
 10 12  2  0
  1 14  1  0
 10 14  1  6
 13 15  2  0
 15 16  1  0
 16 17  2  0
 17 18  1  0
 18 19  2  0
 19 13  1  0
 20 13  1  6
 20 10  1  0
M  END
>  <fitscore>  (10) 
0.362737

$$$$
sQC_Substrate__STK936575_rank_10
     RDKit          3D

 20 22  0  0  0  0  0  0  0  0999 V2000
   38.1412   43.3106   56.2405 C   0  0  0  0  0  0  0  0  0  1  0  0
   38.1469   42.5103   55.0877 C   0  0  0  0  0  0  0  0  0  2  0  0
   37.8941   43.0070   53.8307 C   0  0  0  0  0  0  0  0  0  3  0  0
   37.6191   44.3558   53.6739 C   0  0  0  0  0  0  0  0  0  4  0  0
   37.6046   45.1705   54.7828 C   0  0  0  0  0  0  0  0  0  5  0  0
   37.8662   44.6332   56.0521 C   0  0  0  0  0  0  0  0  0  6  0  0
   37.3359   45.1519   52.6221 N   0  0  0  0  0  0  0  0  0  7  0  0
   37.1480   46.4239   53.0412 C   0  0  0  0  0  0  0  0  0  8  0  0
   37.3159   46.4249   54.3755 N   0  0  0  0  0  0  0  0  0  9  0  0
   39.1231   43.5200   58.7935 S   0  0  1  0  0  6  0  0  0 10  0  0
   38.0017   44.1502   59.6211 O   0  0  0  0  0  0  0  0  0 11  0  0
   39.8155   42.5580   59.7388 O   0  0  0  0  0  0  0  0  0 12  0  0
   40.9035   45.2714   59.6449 C   0  0  0  0  0  0  0  0  0 13  0  0
   38.4381   42.7059   57.4850 N   0  0  0  0  0  0  0  0  0 14  0  0
   41.9842   44.6003   60.1270 C   0  0  0  0  0  0  0  0  0 15  0  0
   42.6323   44.9784   61.3079 C   0  0  0  0  0  0  0  0  0 16  0  0
   42.1428   46.0595   61.9775 C   0  0  0  0  0  0  0  0  0 17  0  0
   41.0435   46.7625   61.5104 C   0  0  0  0  0  0  0  0  0 18  0  0
   40.4165   46.3614   60.3275 C   0  0  0  0  0  0  0  0  0 19  0  0
   40.2182   44.8408   58.3610 C   0  0  0  0  0  0  0  0  0 20  0  0
  1  2  2  0
  2  3  1  0
  3  4  2  0
  4  5  1  0
  5  6  2  0
  6  1  1  0
  4  7  1  0
  7  8  1  0
  8  9  2  0
  9  5  1  0
 10 11  2  0
 10 12  2  0
  1 14  1  0
 10 14  1  6
 13 15  2  0
 15 16  1  0
 16 17  2  0
 17 18  1  0
 18 19  2  0
 19 13  1  0
 20 13  1  6
 20 10  1  0
M  END
>  <fitscore>  (11) 
0.345085

$$$$
sQC_Substrate__STK936575_rank_11
     RDKit          3D

 20 22  0  0  0  0  0  0  0  0999 V2000
   38.3820   43.8415   56.3661 C   0  0  0  0  0  0  0  0  0  1  0  0
   39.4272   44.2923   55.5453 C   0  0  0  0  0  0  0  0  0  2  0  0
   39.2510   45.2337   54.5586 C   0  0  0  0  0  0  0  0  0  3  0  0
   37.9924   45.7738   54.3494 C   0  0  0  0  0  0  0  0  0  4  0  0
   36.9437   45.3546   55.1356 C   0  0  0  0  0  0  0  0  0  5  0  0
   37.1559   44.3920   56.1340 C   0  0  0  0  0  0  0  0  0  6  0  0
   37.4794   46.6867   53.4986 N   0  0  0  0  0  0  0  0  0  7  0  0
   36.1567   46.8448   53.7312 C   0  0  0  0  0  0  0  0  0  8  0  0
   35.8359   46.0188   54.7428 N   0  0  0  0  0  0  0  0  0  9  0  0
   40.0403   42.9381   58.3560 S   0  0  1  0  0  6  0  0  0 10  0  0
   40.5158   41.5067   58.6103 O   0  0  0  0  0  0  0  0  0 11  0  0
   41.1999   43.6182   57.6552 O   0  0  0  0  0  0  0  0  0 12  0  0
   41.0949   43.5252   60.7023 C   0  0  0  0  0  0  0  0  0 13  0  0
   38.6736   42.8869   57.3692 N   0  0  0  0  0  0  0  0  0 14  0  0
   42.0405   44.5021   60.6564 C   0  0  0  0  0  0  0  0  0 15  0  0
   43.2559   44.3978   61.3415 C   0  0  0  0  0  0  0  0  0 16  0  0
   43.4732   43.2682   62.0719 C   0  0  0  0  0  0  0  0  0 17  0  0
   42.5282   42.2564   62.1372 C   0  0  0  0  0  0  0  0  0 18  0  0
   41.3229   42.3885   61.4421 C   0  0  0  0  0  0  0  0  0 19  0  0
   39.7841   43.6626   59.9498 C   0  0  0  0  0  0  0  0  0 20  0  0
  1  2  2  0
  2  3  1  0
  3  4  2  0
  4  5  1  0
  5  6  2  0
  6  1  1  0
  4  7  1  0
  7  8  1  0
  8  9  2  0
  9  5  1  0
 10 11  2  0
 10 12  2  0
  1 14  1  0
 10 14  1  6
 13 15  2  0
 15 16  1  0
 16 17  2  0
 17 18  1  0
 18 19  2  0
 19 13  1  0
 20 13  1  6
 20 10  1  0
M  END
>  <fitscore>  (12) 
0.33766

$$$$
sQC_Substrate__STK936575_rank_12
     RDKit          3D

 20 22  0  0  0  0  0  0  0  0999 V2000
   38.9251   43.0276   56.0050 C   0  0  0  0  0  0  0  0  0  1  0  0
   39.9742   43.1701   55.0839 C   0  0  0  0  0  0  0  0  0  2  0  0
   39.7935   43.6682   53.8151 C   0  0  0  0  0  0  0  0  0  3  0  0
   38.5261   44.0524   53.4082 C   0  0  0  0  0  0  0  0  0  4  0  0
   37.4733   43.9261   54.2854 C   0  0  0  0  0  0  0  0  0  5  0  0
   37.6903   43.4138   55.5733 C   0  0  0  0  0  0  0  0  0  6  0  0
   38.0068   44.5647   52.2732 N   0  0  0  0  0  0  0  0  0  7  0  0
   36.6763   44.7582   52.4185 C   0  0  0  0  0  0  0  0  0  8  0  0
   36.3569   44.3612   53.6631 N   0  0  0  0  0  0  0  0  0  9  0  0
   40.3117   43.2455   58.3620 S   0  0  1  0  0  6  0  0  0 10  0  0
   40.5875   42.2735   59.5104 O   0  0  0  0  0  0  0  0  0 11  0  0
   41.6593   43.4685   57.7044 O   0  0  0  0  0  0  0  0  0 12  0  0
   40.3737   44.8023   60.4915 C   0  0  0  0  0  0  0  0  0 13  0  0
   39.2212   42.5269   57.2950 N   0  0  0  0  0  0  0  0  0 14  0  0
   39.6652   44.4671   61.6034 C   0  0  0  0  0  0  0  0  0 15  0  0
   40.2227   44.5119   62.8858 C   0  0  0  0  0  0  0  0  0 16  0  0
   41.5218   44.9085   62.9953 C   0  0  0  0  0  0  0  0  0 17  0  0
   42.2681   45.2559   61.8802 C   0  0  0  0  0  0  0  0  0 18  0  0
   41.6843   45.2014   60.6116 C   0  0  0  0  0  0  0  0  0 19  0  0
   39.7455   44.7452   59.1111 C   0  0  0  0  0  0  0  0  0 20  0  0
  1  2  2  0
  2  3  1  0
  3  4  2  0
  4  5  1  0
  5  6  2  0
  6  1  1  0
  4  7  1  0
  7  8  1  0
  8  9  2  0
  9  5  1  0
 10 11  2  0
 10 12  2  0
  1 14  1  0
 10 14  1  6
 13 15  2  0
 15 16  1  0
 16 17  2  0
 17 18  1  0
 18 19  2  0
 19 13  1  0
 20 13  1  6
 20 10  1  0
M  END
>  <fitscore>  (13) 
0.33109

$$$$
sQC_Substrate__STK936575_rank_13
     RDKit          3D

 20 22  0  0  0  0  0  0  0  0999 V2000
   38.4920   43.2725   55.7122 C   0  0  0  0  0  0  0  0  0  1  0  0
   38.5915   42.6515   54.4576 C   0  0  0  0  0  0  0  0  0  2  0  0
   38.1186   43.2233   53.3000 C   0  0  0  0  0  0  0  0  0  3  0  0
   37.5131   44.4683   53.3532 C   0  0  0  0  0  0  0  0  0  4  0  0
   37.3979   45.1065   54.5669 C   0  0  0  0  0  0  0  0  0  5  0  0
   37.8902   44.4964   55.7304 C   0  0  0  0  0  0  0  0  0  6  0  0
   36.9562   45.2939   52.4430 N   0  0  0  0  0  0  0  0  0  7  0  0
   36.5032   46.4144   53.0498 C   0  0  0  0  0  0  0  0  0  8  0  0
   36.7804   46.2891   54.3598 N   0  0  0  0  0  0  0  0  0  9  0  0
   39.2206   43.3224   58.3565 S   0  0  1  0  0  6  0  0  0 10  0  0
   39.8088   44.7222   58.1716 O   0  0  0  0  0  0  0  0  0 11  0  0
   37.8806   43.5455   59.0296 O   0  0  0  0  0  0  0  0  0 12  0  0
   40.9530   43.5248   60.3363 C   0  0  0  0  0  0  0  0  0 13  0  0
   39.0326   42.6098   56.8396 N   0  0  0  0  0  0  0  0  0 14  0  0
   42.2055   43.9931   60.0858 C   0  0  0  0  0  0  0  0  0 15  0  0
   42.8129   44.9664   60.8864 C   0  0  0  0  0  0  0  0  0 16  0  0
   42.1026   45.4440   61.9467 C   0  0  0  0  0  0  0  0  0 17  0  0
   40.8248   44.9858   62.2264 C   0  0  0  0  0  0  0  0  0 18  0  0
   40.2436   44.0127   61.4088 C   0  0  0  0  0  0  0  0  0 19  0  0
   40.3163   42.4682   59.4523 C   0  0  0  0  0  0  0  0  0 20  0  0
  1  2  2  0
  2  3  1  0
  3  4  2  0
  4  5  1  0
  5  6  2  0
  6  1  1  0
  4  7  1  0
  7  8  1  0
  8  9  2  0
  9  5  1  0
 10 11  2  0
 10 12  2  0
  1 14  1  0
 10 14  1  6
 13 15  2  0
 15 16  1  0
 16 17  2  0
 17 18  1  0
 18 19  2  0
 19 13  1  0
 20 13  1  6
 20 10  1  0
M  END
>  <fitscore>  (14) 
0.325512

$$$$
sQC_Substrate__STK936575_rank_14
     RDKit          3D

 20 22  0  0  0  0  0  0  0  0999 V2000
   38.3412   43.3592   56.7959 C   0  0  0  0  0  0  0  0  0  1  0  0
   36.9402   43.2789   56.7822 C   0  0  0  0  0  0  0  0  0  2  0  0
   36.1865   43.5423   55.6627 C   0  0  0  0  0  0  0  0  0  3  0  0
   36.8198   43.9049   54.4850 C   0  0  0  0  0  0  0  0  0  4  0  0
   38.1928   43.9941   54.4620 C   0  0  0  0  0  0  0  0  0  5  0  0
   38.9337   43.7194   55.6214 C   0  0  0  0  0  0  0  0  0  6  0  0
   36.4043   44.2224   53.2413 N   0  0  0  0  0  0  0  0  0  7  0  0
   37.4681   44.5032   52.4550 C   0  0  0  0  0  0  0  0  0  8  0  0
   38.5667   44.3595   53.2173 N   0  0  0  0  0  0  0  0  0  9  0  0
   40.6500   43.3951   58.2771 S   0  0  1  0  0  6  0  0  0 10  0  0
   41.3890   42.0897   58.5764 O   0  0  0  0  0  0  0  0  0 11  0  0
   41.3182   43.9481   57.0336 O   0  0  0  0  0  0  0  0  0 12  0  0
   40.1582   43.9006   60.8196 C   0  0  0  0  0  0  0  0  0 13  0  0
   39.0249   43.0444   57.9942 N   0  0  0  0  0  0  0  0  0 14  0  0
   40.6577   42.9071   61.6032 C   0  0  0  0  0  0  0  0  0 15  0  0
   39.9420   42.3747   62.6810 C   0  0  0  0  0  0  0  0  0 16  0  0
   38.7047   42.8878   62.9314 C   0  0  0  0  0  0  0  0  0 17  0  0
   38.1700   43.9001   62.1501 C   0  0  0  0  0  0  0  0  0 18  0  0
   38.9084   44.4123   61.0799 C   0  0  0  0  0  0  0  0  0 19  0  0
   40.9550   44.4612   59.6559 C   0  0  0  0  0  0  0  0  0 20  0  0
  1  2  2  0
  2  3  1  0
  3  4  2  0
  4  5  1  0
  5  6  2  0
  6  1  1  0
  4  7  1  0
  7  8  1  0
  8  9  2  0
  9  5  1  0
 10 11  2  0
 10 12  2  0
  1 14  1  0
 10 14  1  6
 13 15  2  0
 15 16  1  0
 16 17  2  0
 17 18  1  0
 18 19  2  0
 19 13  1  0
 20 13  1  6
 20 10  1  0
M  END
>  <fitscore>  (15) 
0.318444

$$$$
sQC_Substrate__STK936575_rank_15
     RDKit          3D

 20 22  0  0  0  0  0  0  0  0999 V2000
   37.7331   43.4423   56.1538 C   0  0  0  0  0  0  0  0  0  1  0  0
   36.3940   43.4106   55.7353 C   0  0  0  0  0  0  0  0  0  2  0  0
   35.9067   44.2063   54.7252 C   0  0  0  0  0  0  0  0  0  3  0  0
   36.7601   45.0856   54.0789 C   0  0  0  0  0  0  0  0  0  4  0  0
   38.0801   45.1437   54.4635 C   0  0  0  0  0  0  0  0  0  5  0  0
   38.5467   44.3190   55.4981 C   0  0  0  0  0  0  0  0  0  6  0  0
   36.6227   45.9818   53.0796 N   0  0  0  0  0  0  0  0  0  7  0  0
   37.8065   46.5882   52.8352 C   0  0  0  0  0  0  0  0  0  8  0  0
   38.6990   46.0643   53.6940 N   0  0  0  0  0  0  0  0  0  9  0  0
   39.2814   42.9545   58.3653 S   0  0  1  0  0  6  0  0  0 10  0  0
   39.3016   41.8427   59.4156 O   0  0  0  0  0  0  0  0  0 11  0  0
   40.6831   42.9748   57.7882 O   0  0  0  0  0  0  0  0  0 12  0  0
   39.9519   44.5001   60.3959 C   0  0  0  0  0  0  0  0  0 13  0  0
   38.1397   42.5648   57.1868 N   0  0  0  0  0  0  0  0  0 14  0  0
   39.6715   43.9085   61.5884 C   0  0  0  0  0  0  0  0  0 15  0  0
   40.5658   43.9351   62.6639 C   0  0  0  0  0  0  0  0  0 16  0  0
   41.7509   44.5829   62.4827 C   0  0  0  0  0  0  0  0  0 17  0  0
   42.0639   45.1947   61.2791 C   0  0  0  0  0  0  0  0  0 18  0  0
   41.1505   45.1517   60.2222 C   0  0  0  0  0  0  0  0  0 19  0  0
   38.9642   44.4570   59.2444 C   0  0  0  0  0  0  0  0  0 20  0  0
  1  2  2  0
  2  3  1  0
  3  4  2  0
  4  5  1  0
  5  6  2  0
  6  1  1  0
  4  7  1  0
  7  8  1  0
  8  9  2  0
  9  5  1  0
 10 11  2  0
 10 12  2  0
  1 14  1  0
 10 14  1  6
 13 15  2  0
 15 16  1  0
 16 17  2  0
 17 18  1  0
 18 19  2  0
 19 13  1  0
 20 13  1  6
 20 10  1  0
M  END
>  <fitscore>  (16) 
0.289824

$$$$
sQC_Substrate__STK936575_rank_16
     RDKit          3D

 20 22  0  0  0  0  0  0  0  0999 V2000
   38.2704   43.1490   56.3386 C   0  0  0  0  0  0  0  0  0  1  0  0
   36.9708   43.6775   56.3727 C   0  0  0  0  0  0  0  0  0  2  0  0
   36.4835   44.5283   55.4087 C   0  0  0  0  0  0  0  0  0  3  0  0
   37.2965   44.8925   54.3476 C   0  0  0  0  0  0  0  0  0  4  0  0
   38.5773   44.3936   54.2822 C   0  0  0  0  0  0  0  0  0  5  0  0
   39.0452   43.5276   55.2819 C   0  0  0  0  0  0  0  0  0  6  0  0
   37.1470   45.6804   53.2626 N   0  0  0  0  0  0  0  0  0  7  0  0
   38.2857   45.6852   52.5331 C   0  0  0  0  0  0  0  0  0  8  0  0
   39.1618   44.8884   53.1703 N   0  0  0  0  0  0  0  0  0  9  0  0
   39.4589   42.7410   58.7773 S   0  0  1  0  0  6  0  0  0 10  0  0
   38.4113   43.1551   59.8121 O   0  0  0  0  0  0  0  0  0 11  0  0
   40.2012   41.5818   59.4125 O   0  0  0  0  0  0  0  0  0 12  0  0
   41.2687   44.2885   59.9138 C   0  0  0  0  0  0  0  0  0 13  0  0
   38.6669   42.2620   57.3675 N   0  0  0  0  0  0  0  0  0 14  0  0
   40.7778   45.0930   60.8949 C   0  0  0  0  0  0  0  0  0 15  0  0
   41.4295   45.2572   62.1220 C   0  0  0  0  0  0  0  0  0 16  0  0
   42.5939   44.5758   62.3137 C   0  0  0  0  0  0  0  0  0 17  0  0
   43.1180   43.7491   61.3325 C   0  0  0  0  0  0  0  0  0 18  0  0
   42.4446   43.6047   60.1163 C   0  0  0  0  0  0  0  0  0 19  0  0
   40.5423   44.1274   58.5910 C   0  0  0  0  0  0  0  0  0 20  0  0
  1  2  2  0
  2  3  1  0
  3  4  2  0
  4  5  1  0
  5  6  2  0
  6  1  1  0
  4  7  1  0
  7  8  1  0
  8  9  2  0
  9  5  1  0
 10 11  2  0
 10 12  2  0
  1 14  1  0
 10 14  1  6
 13 15  2  0
 15 16  1  0
 16 17  2  0
 17 18  1  0
 18 19  2  0
 19 13  1  0
 20 13  1  6
 20 10  1  0
M  END
>  <fitscore>  (17) 
0.280933

$$$$
sQC_Substrate__STK936575_rank_17
     RDKit          3D

 20 22  0  0  0  0  0  0  0  0999 V2000
   38.4243   43.5274   55.7195 C   0  0  0  0  0  0  0  0  0  1  0  0
   38.4684   43.5288   54.3169 C   0  0  0  0  0  0  0  0  0  2  0  0
   37.8868   44.5116   53.5510 C   0  0  0  0  0  0  0  0  0  3  0  0
   37.2225   45.5562   54.1730 C   0  0  0  0  0  0  0  0  0  4  0  0
   37.1590   45.5869   55.5473 C   0  0  0  0  0  0  0  0  0  5  0  0
   37.7624   44.5687   56.3007 C   0  0  0  0  0  0  0  0  0  6  0  0
   36.5612   46.6514   53.7443 N   0  0  0  0  0  0  0  0  0  7  0  0
   36.0939   47.3537   54.8012 C   0  0  0  0  0  0  0  0  0  8  0  0
   36.4679   46.6888   55.9088 N   0  0  0  0  0  0  0  0  0  9  0  0
   40.4221   42.6999   57.4078 S   0  0  1  0  0  6  0  0  0 10  0  0
   40.6010   41.4517   58.2736 O   0  0  0  0  0  0  0  0  0 11  0  0
   41.6965   42.7980   56.5926 O   0  0  0  0  0  0  0  0  0 12  0  0
   39.9901   43.4796   59.8912 C   0  0  0  0  0  0  0  0  0 13  0  0
   39.0760   42.4817   56.4155 N   0  0  0  0  0  0  0  0  0 14  0  0
   38.7331   43.0623   60.2019 C   0  0  0  0  0  0  0  0  0 15  0  0
   38.4138   42.5198   61.4513 C   0  0  0  0  0  0  0  0  0 16  0  0
   39.4157   42.4176   62.3692 C   0  0  0  0  0  0  0  0  0 17  0  0
   40.7058   42.8345   62.0809 C   0  0  0  0  0  0  0  0  0 18  0  0
   40.9950   43.3727   60.8240 C   0  0  0  0  0  0  0  0  0 19  0  0
   40.3107   44.0649   58.5281 C   0  0  0  0  0  0  0  0  0 20  0  0
  1  2  2  0
  2  3  1  0
  3  4  2  0
  4  5  1  0
  5  6  2  0
  6  1  1  0
  4  7  1  0
  7  8  1  0
  8  9  2  0
  9  5  1  0
 10 11  2  0
 10 12  2  0
  1 14  1  0
 10 14  1  6
 13 15  2  0
 15 16  1  0
 16 17  2  0
 17 18  1  0
 18 19  2  0
 19 13  1  0
 20 13  1  6
 20 10  1  0
M  END
>  <fitscore>  (18) 
0.260728

$$$$
sQC_Substrate__STK936575_rank_18
     RDKit          3D

 20 22  0  0  0  0  0  0  0  0999 V2000
   37.8224   43.5158   56.5161 C   0  0  0  0  0  0  0  0  0  1  0  0
   36.6879   43.0426   55.8389 C   0  0  0  0  0  0  0  0  0  2  0  0
   36.1831   43.6470   54.7117 C   0  0  0  0  0  0  0  0  0  3  0  0
   36.8082   44.7751   54.2057 C   0  0  0  0  0  0  0  0  0  4  0  0
   37.9232   45.2673   54.8445 C   0  0  0  0  0  0  0  0  0  5  0  0
   38.4136   44.6281   55.9931 C   0  0  0  0  0  0  0  0  0  6  0  0
   36.5894   45.5919   53.1542 N   0  0  0  0  0  0  0  0  0  7  0  0
   37.5263   46.5666   53.1220 C   0  0  0  0  0  0  0  0  0  8  0  0
   38.3444   46.3576   54.1687 N   0  0  0  0  0  0  0  0  0  9  0  0
   38.4947   43.4993   59.1757 S   0  0  1  0  0  6  0  0  0 10  0  0
   37.2195   44.2510   59.5610 O   0  0  0  0  0  0  0  0  0 11  0  0
   38.6626   42.4375   60.2446 O   0  0  0  0  0  0  0  0  0 12  0  0
   41.0727   43.9537   58.8446 C   0  0  0  0  0  0  0  0  0 13  0  0
   38.2756   42.8067   57.6537 N   0  0  0  0  0  0  0  0  0 14  0  0
   41.7785   43.1837   59.7161 C   0  0  0  0  0  0  0  0  0 15  0  0
   42.9441   42.5072   59.3402 C   0  0  0  0  0  0  0  0  0 16  0  0
   43.3635   42.6423   58.0508 C   0  0  0  0  0  0  0  0  0 17  0  0
   42.6649   43.4200   57.1408 C   0  0  0  0  0  0  0  0  0 18  0  0
   41.5037   44.0841   57.5451 C   0  0  0  0  0  0  0  0  0 19  0  0
   39.8109   44.6775   59.2775 C   0  0  0  0  0  0  0  0  0 20  0  0
  1  2  2  0
  2  3  1  0
  3  4  2  0
  4  5  1  0
  5  6  2  0
  6  1  1  0
  4  7  1  0
  7  8  1  0
  8  9  2  0
  9  5  1  0
 10 11  2  0
 10 12  2  0
  1 14  1  0
 10 14  1  6
 13 15  2  0
 15 16  1  0
 16 17  2  0
 17 18  1  0
 18 19  2  0
 19 13  1  0
 20 13  1  6
 20 10  1  0
M  END
>  <fitscore>  (19) 
0.245307

$$$$
sQC_Substrate__STK936575_rank_19
     RDKit          3D

 20 22  0  0  0  0  0  0  0  0999 V2000
   37.8111   43.8955   56.4051 C   0  0  0  0  0  0  0  0  0  1  0  0
   37.9453   42.9693   55.3594 C   0  0  0  0  0  0  0  0  0  2  0  0
   37.9867   43.3368   54.0350 C   0  0  0  0  0  0  0  0  0  3  0  0
   37.8932   44.6771   53.6968 C   0  0  0  0  0  0  0  0  0  4  0  0
   37.7603   45.6132   54.6966 C   0  0  0  0  0  0  0  0  0  5  0  0
   37.7208   45.2062   56.0387 C   0  0  0  0  0  0  0  0  0  6  0  0
   37.8990   45.3673   52.5376 N   0  0  0  0  0  0  0  0  0  7  0  0
   37.7748   46.6909   52.7859 C   0  0  0  0  0  0  0  0  0  8  0  0
   37.6899   46.8322   54.1206 N   0  0  0  0  0  0  0  0  0  9  0  0
   39.0151   43.7361   58.8650 S   0  0  1  0  0  6  0  0  0 10  0  0
   39.9351   44.8211   58.3027 O   0  0  0  0  0  0  0  0  0 11  0  0
   38.4402   44.3291   60.1363 O   0  0  0  0  0  0  0  0  0 12  0  0
   41.0348   42.8425   60.3087 C   0  0  0  0  0  0  0  0  0 13  0  0
   37.8035   43.4158   57.7364 N   0  0  0  0  0  0  0  0  0 14  0  0
   40.7595   42.7190   61.6352 C   0  0  0  0  0  0  0  0  0 15  0  0
   41.6453   43.1566   62.6257 C   0  0  0  0  0  0  0  0  0 16  0  0
   42.8165   43.7222   62.2191 C   0  0  0  0  0  0  0  0  0 17  0  0
   43.1241   43.8612   60.8748 C   0  0  0  0  0  0  0  0  0 18  0  0
   42.2194   43.4146   59.9077 C   0  0  0  0  0  0  0  0  0 19  0  0
   40.0567   42.3596   59.2535 C   0  0  0  0  0  0  0  0  0 20  0  0
  1  2  2  0
  2  3  1  0
  3  4  2  0
  4  5  1  0
  5  6  2  0
  6  1  1  0
  4  7  1  0
  7  8  1  0
  8  9  2  0
  9  5  1  0
 10 11  2  0
 10 12  2  0
  1 14  1  0
 10 14  1  6
 13 15  2  0
 15 16  1  0
 16 17  2  0
 17 18  1  0
 18 19  2  0
 19 13  1  0
 20 13  1  6
 20 10  1  0
M  END
>  <fitscore>  (20) 
0.243789

$$$$
sQC_Substrate__STK936575_rank_20
     RDKit          3D

 20 22  0  0  0  0  0  0  0  0999 V2000
   37.2398   44.2308   56.6899 C   0  0  0  0  0  0  0  0  0  1  0  0
   35.9104   44.6685   56.5868 C   0  0  0  0  0  0  0  0  0  2  0  0
   35.4516   45.4263   55.5351 C   0  0  0  0  0  0  0  0  0  3  0  0
   36.3254   45.7843   54.5213 C   0  0  0  0  0  0  0  0  0  4  0  0
   37.6367   45.3728   54.5898 C   0  0  0  0  0  0  0  0  0  5  0  0
   38.0743   44.6008   55.6764 C   0  0  0  0  0  0  0  0  0  6  0  0
   36.2166   46.4960   53.3802 N   0  0  0  0  0  0  0  0  0  7  0  0
   37.4097   46.5379   52.7449 C   0  0  0  0  0  0  0  0  0  8  0  0
   38.2791   45.8422   53.4991 N   0  0  0  0  0  0  0  0  0  9  0  0
   39.1896   42.9837   58.1625 S   0  0  1  0  0  6  0  0  0 10  0  0
   39.1800   42.1330   59.4338 O   0  0  0  0  0  0  0  0  0 11  0  0
   39.7629   42.0793   57.0894 O   0  0  0  0  0  0  0  0  0 12  0  0
   41.0874   43.9547   59.7175 C   0  0  0  0  0  0  0  0  0 13  0  0
   37.6052   43.4344   57.8011 N   0  0  0  0  0  0  0  0  0 14  0  0
   41.6106   44.9081   60.5347 C   0  0  0  0  0  0  0  0  0 15  0  0
   42.3441   44.5877   61.6822 C   0  0  0  0  0  0  0  0  0 16  0  0
   42.5250   43.2674   61.9667 C   0  0  0  0  0  0  0  0  0 17  0  0
   42.0037   42.2742   61.1526 C   0  0  0  0  0  0  0  0  0 18  0  0
   41.2751   42.6246   60.0126 C   0  0  0  0  0  0  0  0  0 19  0  0
   40.2952   44.3287   58.4781 C   0  0  0  0  0  0  0  0  0 20  0  0
  1  2  2  0
  2  3  1  0
  3  4  2  0
  4  5  1  0
  5  6  2  0
  6  1  1  0
  4  7  1  0
  7  8  1  0
  8  9  2  0
  9  5  1  0
 10 11  2  0
 10 12  2  0
  1 14  1  0
 10 14  1  6
 13 15  2  0
 15 16  1  0
 16 17  2  0
 17 18  1  0
 18 19  2  0
 19 13  1  0
 20 13  1  6
 20 10  1  0
M  END
>  <fitscore>  (21) 
0.235774

$$$$
sQC_Substrate__STK936575_rank_21
     RDKit          3D

 20 22  0  0  0  0  0  0  0  0999 V2000
   37.8256   44.0419   56.4504 C   0  0  0  0  0  0  0  0  0  1  0  0
   36.5922   44.6986   56.3196 C   0  0  0  0  0  0  0  0  0  2  0  0
   36.3308   45.6079   55.3219 C   0  0  0  0  0  0  0  0  0  3  0  0
   37.3162   45.9030   54.3938 C   0  0  0  0  0  0  0  0  0  4  0  0
   38.5383   45.2780   54.4918 C   0  0  0  0  0  0  0  0  0  5  0  0
   38.7742   44.3551   55.5218 C   0  0  0  0  0  0  0  0  0  6  0  0
   37.3983   46.7173   53.3212 N   0  0  0  0  0  0  0  0  0  7  0  0
   38.6229   46.6172   52.7562 C   0  0  0  0  0  0  0  0  0  8  0  0
   39.3186   45.7269   53.4856 N   0  0  0  0  0  0  0  0  0  9  0  0
   39.4444   42.8093   58.2905 S   0  0  1  0  0  6  0  0  0 10  0  0
   39.1450   42.1856   59.6547 O   0  0  0  0  0  0  0  0  0 11  0  0
   40.2682   41.7700   57.5561 O   0  0  0  0  0  0  0  0  0 12  0  0
   41.4999   43.8258   59.5956 C   0  0  0  0  0  0  0  0  0 13  0  0
   37.9849   43.1049   57.4987 N   0  0  0  0  0  0  0  0  0 14  0  0
   42.6755   43.2893   59.1704 C   0  0  0  0  0  0  0  0  0 15  0  0
   43.6808   42.8939   60.0594 C   0  0  0  0  0  0  0  0  0 16  0  0
   43.4474   43.0634   61.3912 C   0  0  0  0  0  0  0  0  0 17  0  0
   42.2594   43.6072   61.8537 C   0  0  0  0  0  0  0  0  0 18  0  0
   41.2731   43.9931   60.9417 C   0  0  0  0  0  0  0  0  0 19  0  0
   40.4250   44.2469   58.6105 C   0  0  0  0  0  0  0  0  0 20  0  0
  1  2  2  0
  2  3  1  0
  3  4  2  0
  4  5  1  0
  5  6  2  0
  6  1  1  0
  4  7  1  0
  7  8  1  0
  8  9  2  0
  9  5  1  0
 10 11  2  0
 10 12  2  0
  1 14  1  0
 10 14  1  6
 13 15  2  0
 15 16  1  0
 16 17  2  0
 17 18  1  0
 18 19  2  0
 19 13  1  0
 20 13  1  6
 20 10  1  0
M  END
>  <fitscore>  (22) 
0.224371

$$$$
sQC_Substrate__STK936575_rank_22
     RDKit          3D

 20 22  0  0  0  0  0  0  0  0999 V2000
   38.1759   43.7555   56.5069 C   0  0  0  0  0  0  0  0  0  1  0  0
   37.1131   44.6696   56.5723 C   0  0  0  0  0  0  0  0  0  2  0  0
   36.9568   45.7007   55.6760 C   0  0  0  0  0  0  0  0  0  3  0  0
   37.8794   45.8615   54.6550 C   0  0  0  0  0  0  0  0  0  4  0  0
   38.9348   44.9836   54.5606 C   0  0  0  0  0  0  0  0  0  5  0  0
   39.0668   43.9419   55.4910 C   0  0  0  0  0  0  0  0  0  6  0  0
   38.0269   46.7335   53.6361 N   0  0  0  0  0  0  0  0  0  7  0  0
   39.1316   46.4258   52.9193 C   0  0  0  0  0  0  0  0  0  8  0  0
   39.6846   45.3449   53.4976 N   0  0  0  0  0  0  0  0  0  9  0  0
   39.5346   42.4544   58.5036 S   0  0  1  0  0  6  0  0  0 10  0  0
   39.0965   41.4899   59.6070 O   0  0  0  0  0  0  0  0  0 11  0  0
   40.6728   41.7478   57.7939 O   0  0  0  0  0  0  0  0  0 12  0  0
   40.8996   43.4206   60.5445 C   0  0  0  0  0  0  0  0  0 13  0  0
   38.2325   42.7147   57.4640 N   0  0  0  0  0  0  0  0  0 14  0  0
   42.2419   43.2045   60.4966 C   0  0  0  0  0  0  0  0  0 15  0  0
   42.9671   42.7610   61.6077 C   0  0  0  0  0  0  0  0  0 16  0  0
   42.2798   42.5463   62.7646 C   0  0  0  0  0  0  0  0  0 17  0  0
   40.9123   42.7579   62.8432 C   0  0  0  0  0  0  0  0  0 18  0  0
   40.2142   43.2012   61.7165 C   0  0  0  0  0  0  0  0  0 19  0  0
   40.1358   43.9019   59.3246 C   0  0  0  0  0  0  0  0  0 20  0  0
  1  2  2  0
  2  3  1  0
  3  4  2  0
  4  5  1  0
  5  6  2  0
  6  1  1  0
  4  7  1  0
  7  8  1  0
  8  9  2  0
  9  5  1  0
 10 11  2  0
 10 12  2  0
  1 14  1  0
 10 14  1  6
 13 15  2  0
 15 16  1  0
 16 17  2  0
 17 18  1  0
 18 19  2  0
 19 13  1  0
 20 13  1  6
 20 10  1  0
M  END
>  <fitscore>  (23) 
0.223735

$$$$
sQC_Substrate__STK936575_rank_23
     RDKit          3D

 20 22  0  0  0  0  0  0  0  0999 V2000
   38.2387   42.9888   56.4551 C   0  0  0  0  0  0  0  0  0  1  0  0
   37.0592   42.3597   56.0278 C   0  0  0  0  0  0  0  0  0  2  0  0
   36.4620   42.6311   54.8194 C   0  0  0  0  0  0  0  0  0  3  0  0
   37.0348   43.5646   53.9709 C   0  0  0  0  0  0  0  0  0  4  0  0
   38.1917   44.2015   54.3577 C   0  0  0  0  0  0  0  0  0  5  0  0
   38.7766   43.9028   55.5974 C   0  0  0  0  0  0  0  0  0  6  0  0
   36.7266   44.0575   52.7533 N   0  0  0  0  0  0  0  0  0  7  0  0
   37.6488   44.9722   52.3768 C   0  0  0  0  0  0  0  0  0  8  0  0
   38.5482   45.0538   53.3732 N   0  0  0  0  0  0  0  0  0  9  0  0
   39.9267   43.5352   58.5475 S   0  0  1  0  0  6  0  0  0 10  0  0
   40.5495   42.6618   59.6378 O   0  0  0  0  0  0  0  0  0 11  0  0
   41.0844   43.9297   57.6516 O   0  0  0  0  0  0  0  0  0 12  0  0
   40.2537   45.2966   60.4846 C   0  0  0  0  0  0  0  0  0 13  0  0
   38.7863   42.6203   57.7069 N   0  0  0  0  0  0  0  0  0 14  0  0
   39.8779   45.2356   61.7906 C   0  0  0  0  0  0  0  0  0 15  0  0
   40.7573   45.5387   62.8357 C   0  0  0  0  0  0  0  0  0 16  0  0
   42.0275   45.9046   62.5050 C   0  0  0  0  0  0  0  0  0 17  0  0
   42.4386   45.9756   61.1833 C   0  0  0  0  0  0  0  0  0 18  0  0
   41.5378   45.6669   60.1603 C   0  0  0  0  0  0  0  0  0 19  0  0
   39.2803   44.9628   59.3691 C   0  0  0  0  0  0  0  0  0 20  0  0
  1  2  2  0
  2  3  1  0
  3  4  2  0
  4  5  1  0
  5  6  2  0
  6  1  1  0
  4  7  1  0
  7  8  1  0
  8  9  2  0
  9  5  1  0
 10 11  2  0
 10 12  2  0
  1 14  1  0
 10 14  1  6
 13 15  2  0
 15 16  1  0
 16 17  2  0
 17 18  1  0
 18 19  2  0
 19 13  1  0
 20 13  1  6
 20 10  1  0
M  END
>  <fitscore>  (24) 
0.211663

$$$$
sQC_Substrate__STK936575_rank_24
     RDKit          3D

 20 22  0  0  0  0  0  0  0  0999 V2000
   38.0791   42.8410   56.7926 C   0  0  0  0  0  0  0  0  0  1  0  0
   36.6960   42.8364   56.5551 C   0  0  0  0  0  0  0  0  0  2  0  0
   36.1358   43.2977   55.3871 C   0  0  0  0  0  0  0  0  0  3  0  0
   36.9567   43.7934   54.3872 C   0  0  0  0  0  0  0  0  0  4  0  0
   38.3183   43.8135   54.5860 C   0  0  0  0  0  0  0  0  0  5  0  0
   38.8592   43.3360   55.7892 C   0  0  0  0  0  0  0  0  0  6  0  0
   36.7514   44.3085   53.1572 N   0  0  0  0  0  0  0  0  0  7  0  0
   37.9334   44.6444   52.5925 C   0  0  0  0  0  0  0  0  0  8  0  0
   38.8937   44.3351   53.4817 N   0  0  0  0  0  0  0  0  0  9  0  0
   39.6511   43.1191   59.0237 S   0  0  1  0  0  6  0  0  0 10  0  0
   39.8456   42.2900   60.2943 O   0  0  0  0  0  0  0  0  0 11  0  0
   41.0260   43.1940   58.3896 O   0  0  0  0  0  0  0  0  0 12  0  0
   40.3070   45.3176   60.3269 C   0  0  0  0  0  0  0  0  0 13  0  0
   38.5563   42.3211   58.0192 N   0  0  0  0  0  0  0  0  0 14  0  0
   40.4907   45.0477   61.6475 C   0  0  0  0  0  0  0  0  0 15  0  0
   41.5589   45.5807   62.3772 C   0  0  0  0  0  0  0  0  0 16  0  0
   42.4296   46.3948   61.7170 C   0  0  0  0  0  0  0  0  0 17  0  0
   42.2677   46.6875   60.3719 C   0  0  0  0  0  0  0  0  0 18  0  0
   41.1910   46.1404   59.6688 C   0  0  0  0  0  0  0  0  0 19  0  0
   39.1397   44.7266   59.5577 C   0  0  0  0  0  0  0  0  0 20  0  0
  1  2  2  0
  2  3  1  0
  3  4  2  0
  4  5  1  0
  5  6  2  0
  6  1  1  0
  4  7  1  0
  7  8  1  0
  8  9  2  0
  9  5  1  0
 10 11  2  0
 10 12  2  0
  1 14  1  0
 10 14  1  6
 13 15  2  0
 15 16  1  0
 16 17  2  0
 17 18  1  0
 18 19  2  0
 19 13  1  0
 20 13  1  6
 20 10  1  0
M  END
>  <fitscore>  (25) 
0.209639

$$$$
sQC_Substrate__STK936575_rank_25
     RDKit          3D

 20 22  0  0  0  0  0  0  0  0999 V2000
   37.5337   43.4897   56.3899 C   0  0  0  0  0  0  0  0  0  1  0  0
   36.3786   43.1318   55.6777 C   0  0  0  0  0  0  0  0  0  2  0  0
   36.0311   43.7067   54.4780 C   0  0  0  0  0  0  0  0  0  3  0  0
   36.8447   44.6854   53.9306 C   0  0  0  0  0  0  0  0  0  4  0  0
   37.9854   45.0617   54.6020 C   0  0  0  0  0  0  0  0  0  5  0  0
   38.3124   44.4564   55.8246 C   0  0  0  0  0  0  0  0  0  6  0  0
   36.8074   45.4344   52.8090 N   0  0  0  0  0  0  0  0  0  7  0  0
   37.8806   46.2562   52.7648 C   0  0  0  0  0  0  0  0  0  8  0  0
   38.6011   46.0187   53.8753 N   0  0  0  0  0  0  0  0  0  9  0  0
   39.3308   42.7903   58.3411 S   0  0  1  0  0  6  0  0  0 10  0  0
   39.3659   41.6378   59.3462 O   0  0  0  0  0  0  0  0  0 11  0  0
   40.4229   42.4708   57.3393 O   0  0  0  0  0  0  0  0  0 12  0  0
   40.9295   43.8868   60.1310 C   0  0  0  0  0  0  0  0  0 13  0  0
   37.8140   42.8199   57.6045 N   0  0  0  0  0  0  0  0  0 14  0  0
   42.1888   43.8032   59.6232 C   0  0  0  0  0  0  0  0  0 15  0  0
   43.2930   43.4704   60.4153 C   0  0  0  0  0  0  0  0  0 16  0  0
   43.0701   43.2268   61.7374 C   0  0  0  0  0  0  0  0  0 17  0  0
   41.7983   43.3044   62.2826 C   0  0  0  0  0  0  0  0  0 18  0  0
   40.7142   43.6392   61.4666 C   0  0  0  0  0  0  0  0  0 19  0  0
   39.7481   44.2498   59.2502 C   0  0  0  0  0  0  0  0  0 20  0  0
  1  2  2  0
  2  3  1  0
  3  4  2  0
  4  5  1  0
  5  6  2  0
  6  1  1  0
  4  7  1  0
  7  8  1  0
  8  9  2  0
  9  5  1  0
 10 11  2  0
 10 12  2  0
  1 14  1  0
 10 14  1  6
 13 15  2  0
 15 16  1  0
 16 17  2  0
 17 18  1  0
 18 19  2  0
 19 13  1  0
 20 13  1  6
 20 10  1  0
M  END
>  <fitscore>  (26) 
0.19859

$$$$
sQC_Substrate__STK936575_rank_26
     RDKit          3D

 20 22  0  0  0  0  0  0  0  0999 V2000
   37.6974   43.2785   56.3520 C   0  0  0  0  0  0  0  0  0  1  0  0
   36.3673   43.7206   56.4216 C   0  0  0  0  0  0  0  0  0  2  0  0
   35.7093   44.2843   55.3539 C   0  0  0  0  0  0  0  0  0  3  0  0
   36.3718   44.4314   54.1461 C   0  0  0  0  0  0  0  0  0  4  0  0
   37.6774   44.0092   54.0417 C   0  0  0  0  0  0  0  0  0  5  0  0
   38.3213   43.4383   55.1497 C   0  0  0  0  0  0  0  0  0  6  0  0
   36.0413   44.9254   52.9349 N   0  0  0  0  0  0  0  0  0  7  0  0
   37.0925   44.8234   52.0903 C   0  0  0  0  0  0  0  0  0  8  0  0
   38.0968   44.2570   52.7825 N   0  0  0  0  0  0  0  0  0  9  0  0
   39.7033   43.2242   58.2227 S   0  0  1  0  0  6  0  0  0 10  0  0
   40.0702   42.2642   59.3556 O   0  0  0  0  0  0  0  0  0 11  0  0
   40.8683   43.1532   57.2553 O   0  0  0  0  0  0  0  0  0 12  0  0
   40.8694   44.9985   59.7893 C   0  0  0  0  0  0  0  0  0 13  0  0
   38.2754   42.6898   57.5018 N   0  0  0  0  0  0  0  0  0 14  0  0
   42.0129   45.5074   59.2563 C   0  0  0  0  0  0  0  0  0 15  0  0
   43.1810   45.6678   60.0094 C   0  0  0  0  0  0  0  0  0 16  0  0
   43.1434   45.2931   61.3191 C   0  0  0  0  0  0  0  0  0 17  0  0
   41.9927   44.7717   61.8892 C   0  0  0  0  0  0  0  0  0 18  0  0
   40.8408   44.6231   61.1120 C   0  0  0  0  0  0  0  0  0 19  0  0
   39.6151   44.8345   58.9507 C   0  0  0  0  0  0  0  0  0 20  0  0
  1  2  2  0
  2  3  1  0
  3  4  2  0
  4  5  1  0
  5  6  2  0
  6  1  1  0
  4  7  1  0
  7  8  1  0
  8  9  2  0
  9  5  1  0
 10 11  2  0
 10 12  2  0
  1 14  1  0
 10 14  1  6
 13 15  2  0
 15 16  1  0
 16 17  2  0
 17 18  1  0
 18 19  2  0
 19 13  1  0
 20 13  1  6
 20 10  1  0
M  END
>  <fitscore>  (27) 
0.197888

$$$$
sQC_Substrate__STK936575_rank_27
     RDKit          3D

 20 22  0  0  0  0  0  0  0  0999 V2000
   37.3830   43.6572   56.3059 C   0  0  0  0  0  0  0  0  0  1  0  0
   36.2040   44.4183   56.2998 C   0  0  0  0  0  0  0  0  0  2  0  0
   35.7511   45.0874   55.1872 C   0  0  0  0  0  0  0  0  0  3  0  0
   36.4771   45.0199   54.0092 C   0  0  0  0  0  0  0  0  0  4  0  0
   37.6388   44.2829   53.9788 C   0  0  0  0  0  0  0  0  0  5  0  0
   38.0746   43.6118   55.1312 C   0  0  0  0  0  0  0  0  0  6  0  0
   36.3293   45.5349   52.7709 N   0  0  0  0  0  0  0  0  0  7  0  0
   37.3546   45.1432   51.9809 C   0  0  0  0  0  0  0  0  0  8  0  0
   38.1569   44.3713   52.7353 N   0  0  0  0  0  0  0  0  0  9  0  0
   39.3138   42.9596   58.1256 S   0  0  1  0  0  6  0  0  0 10  0  0
   39.3235   42.0852   59.3806 O   0  0  0  0  0  0  0  0  0 11  0  0
   40.2789   42.2856   57.1702 O   0  0  0  0  0  0  0  0  0 12  0  0
   41.1072   44.2603   59.5588 C   0  0  0  0  0  0  0  0  0 13  0  0
   37.7490   42.9868   57.4972 N   0  0  0  0  0  0  0  0  0 14  0  0
   42.3654   44.0515   59.0856 C   0  0  0  0  0  0  0  0  0 15  0  0
   43.4490   43.7955   59.9326 C   0  0  0  0  0  0  0  0  0 16  0  0
   43.2069   43.7599   61.2731 C   0  0  0  0  0  0  0  0  0 17  0  0
   41.9356   43.9689   61.7841 C   0  0  0  0  0  0  0  0  0 18  0  0
   40.8723   44.2224   60.9134 C   0  0  0  0  0  0  0  0  0 19  0  0
   39.9482   44.5361   58.6185 C   0  0  0  0  0  0  0  0  0 20  0  0
  1  2  2  0
  2  3  1  0
  3  4  2  0
  4  5  1  0
  5  6  2  0
  6  1  1  0
  4  7  1  0
  7  8  1  0
  8  9  2  0
  9  5  1  0
 10 11  2  0
 10 12  2  0
  1 14  1  0
 10 14  1  6
 13 15  2  0
 15 16  1  0
 16 17  2  0
 17 18  1  0
 18 19  2  0
 19 13  1  0
 20 13  1  6
 20 10  1  0
M  END
>  <fitscore>  (28) 
0.175027

$$$$
sQC_Substrate__STK936575_rank_28
     RDKit          3D

 20 22  0  0  0  0  0  0  0  0999 V2000
   38.9939   43.1974   55.5473 C   0  0  0  0  0  0  0  0  0  1  0  0
   40.0280   42.9274   54.6378 C   0  0  0  0  0  0  0  0  0  2  0  0
   40.2331   43.6670   53.4969 C   0  0  0  0  0  0  0  0  0  3  0  0
   39.3919   44.7309   53.2144 C   0  0  0  0  0  0  0  0  0  4  0  0
   38.3666   45.0244   54.0841 C   0  0  0  0  0  0  0  0  0  5  0  0
   38.1833   44.2504   55.2398 C   0  0  0  0  0  0  0  0  0  6  0  0
   39.3075   45.6373   52.2185 N   0  0  0  0  0  0  0  0  0  7  0  0
   38.2706   46.4761   52.4422 C   0  0  0  0  0  0  0  0  0  8  0  0
   37.6966   46.0897   53.5954 N   0  0  0  0  0  0  0  0  0  9  0  0
   39.0698   42.9644   58.2797 S   0  0  1  0  0  6  0  0  0 10  0  0
   37.8989   43.8930   58.6055 O   0  0  0  0  0  0  0  0  0 11  0  0
   38.9712   41.8389   59.2905 O   0  0  0  0  0  0  0  0  0 12  0  0
   40.7026   44.0136   60.0672 C   0  0  0  0  0  0  0  0  0 13  0  0
   38.8835   42.3908   56.7047 N   0  0  0  0  0  0  0  0  0 14  0  0
   39.9630   44.8921   60.7965 C   0  0  0  0  0  0  0  0  0 15  0  0
   40.0953   45.0076   62.1845 C   0  0  0  0  0  0  0  0  0 16  0  0
   41.0037   44.2002   62.8008 C   0  0  0  0  0  0  0  0  0 17  0  0
   41.7711   43.2959   62.0837 C   0  0  0  0  0  0  0  0  0 18  0  0
   41.6170   43.2027   60.6978 C   0  0  0  0  0  0  0  0  0 19  0  0
   40.5400   43.9076   58.5619 C   0  0  0  0  0  0  0  0  0 20  0  0
  1  2  2  0
  2  3  1  0
  3  4  2  0
  4  5  1  0
  5  6  2  0
  6  1  1  0
  4  7  1  0
  7  8  1  0
  8  9  2  0
  9  5  1  0
 10 11  2  0
 10 12  2  0
  1 14  1  0
 10 14  1  6
 13 15  2  0
 15 16  1  0
 16 17  2  0
 17 18  1  0
 18 19  2  0
 19 13  1  0
 20 13  1  6
 20 10  1  0
M  END
>  <fitscore>  (29) 
0.174677

$$$$
sQC_Substrate__STK936575_rank_29
     RDKit          3D

 20 22  0  0  0  0  0  0  0  0999 V2000
   37.8300   43.2227   56.9552 C   0  0  0  0  0  0  0  0  0  1  0  0
   36.6202   43.9329   56.9164 C   0  0  0  0  0  0  0  0  0  2  0  0
   36.1791   44.5988   55.7971 C   0  0  0  0  0  0  0  0  0  3  0  0
   36.9492   44.5800   54.6456 C   0  0  0  0  0  0  0  0  0  4  0  0
   38.1419   43.8936   54.6477 C   0  0  0  0  0  0  0  0  0  5  0  0
   38.5646   43.2244   55.8060 C   0  0  0  0  0  0  0  0  0  6  0  0
   36.8238   45.1068   53.4098 N   0  0  0  0  0  0  0  0  0  7  0  0
   37.8928   44.7710   52.6525 C   0  0  0  0  0  0  0  0  0  8  0  0
   38.7000   44.0227   53.4251 N   0  0  0  0  0  0  0  0  0  9  0  0
   39.7679   42.2306   58.6244 S   0  0  1  0  0  6  0  0  0 10  0  0
   39.7709   40.9942   59.5249 O   0  0  0  0  0  0  0  0  0 11  0  0
   40.6320   41.8536   57.4371 O   0  0  0  0  0  0  0  0  0 12  0  0
   40.5815   44.7405   58.6539 C   0  0  0  0  0  0  0  0  0 13  0  0
   38.1815   42.5506   58.1499 N   0  0  0  0  0  0  0  0  0 14  0  0
   41.5203   44.8675   57.6776 C   0  0  0  0  0  0  0  0  0 15  0  0
   41.5751   45.9829   56.8348 C   0  0  0  0  0  0  0  0  0 16  0  0
   40.6439   46.9602   57.0208 C   0  0  0  0  0  0  0  0  0 17  0  0
   39.6756   46.8581   58.0072 C   0  0  0  0  0  0  0  0  0 18  0  0
   39.6456   45.7319   58.8343 C   0  0  0  0  0  0  0  0  0 19  0  0
   40.5435   43.5201   59.5553 C   0  0  0  0  0  0  0  0  0 20  0  0
  1  2  2  0
  2  3  1  0
  3  4  2  0
  4  5  1  0
  5  6  2  0
  6  1  1  0
  4  7  1  0
  7  8  1  0
  8  9  2  0
  9  5  1  0
 10 11  2  0
 10 12  2  0
  1 14  1  0
 10 14  1  6
 13 15  2  0
 15 16  1  0
 16 17  2  0
 17 18  1  0
 18 19  2  0
 19 13  1  0
 20 13  1  6
 20 10  1  0
M  END
>  <fitscore>  (30) 
0.159381

$$$$
sQC_Substrate__STK936575_rank_30
     RDKit          3D

 20 22  0  0  0  0  0  0  0  0999 V2000
   38.2441   43.1868   55.4542 C   0  0  0  0  0  0  0  0  0  1  0  0
   37.9653   42.4351   54.3024 C   0  0  0  0  0  0  0  0  0  2  0  0
   37.9072   42.9871   53.0444 C   0  0  0  0  0  0  0  0  0  3  0  0
   38.1310   44.3451   52.8855 C   0  0  0  0  0  0  0  0  0  4  0  0
   38.4068   45.1134   53.9933 C   0  0  0  0  0  0  0  0  0  5  0  0
   38.4586   44.5203   55.2637 C   0  0  0  0  0  0  0  0  0  6  0  0
   38.1511   45.1881   51.8322 N   0  0  0  0  0  0  0  0  0  7  0  0
   38.4283   46.4443   52.2495 C   0  0  0  0  0  0  0  0  0  8  0  0
   38.5844   46.3876   53.5840 N   0  0  0  0  0  0  0  0  0  9  0  0
   39.2373   43.0345   58.0069 S   0  0  1  0  0  6  0  0  0 10  0  0
   39.5880   41.8209   58.8693 O   0  0  0  0  0  0  0  0  0 11  0  0
   40.5716   43.5877   57.5466 O   0  0  0  0  0  0  0  0  0 12  0  0
   39.3175   44.3100   60.3152 C   0  0  0  0  0  0  0  0  0 13  0  0
   38.3049   42.5182   56.6998 N   0  0  0  0  0  0  0  0  0 14  0  0
   40.2878   45.2598   60.4000 C   0  0  0  0  0  0  0  0  0 15  0  0
   41.1095   45.3897   61.5249 C   0  0  0  0  0  0  0  0  0 16  0  0
   40.9088   44.5218   62.5561 C   0  0  0  0  0  0  0  0  0 17  0  0
   39.9281   43.5441   62.4979 C   0  0  0  0  0  0  0  0  0 18  0  0
   39.1223   43.4383   61.3609 C   0  0  0  0  0  0  0  0  0 19  0  0
   38.4392   44.1899   59.0834 C   0  0  0  0  0  0  0  0  0 20  0  0
  1  2  2  0
  2  3  1  0
  3  4  2  0
  4  5  1  0
  5  6  2  0
  6  1  1  0
  4  7  1  0
  7  8  1  0
  8  9  2  0
  9  5  1  0
 10 11  2  0
 10 12  2  0
  1 14  1  0
 10 14  1  6
 13 15  2  0
 15 16  1  0
 16 17  2  0
 17 18  1  0
 18 19  2  0
 19 13  1  0
 20 13  1  6
 20 10  1  0
M  END
>  <fitscore>  (31) 
0.132166

$$$$
sQC_Substrate__STK936575_rank_31
     RDKit          3D

 20 22  0  0  0  0  0  0  0  0999 V2000
   37.5123   44.0282   56.5256 C   0  0  0  0  0  0  0  0  0  1  0  0
   36.5183   43.2931   55.8616 C   0  0  0  0  0  0  0  0  0  2  0  0
   36.0719   43.6081   54.5997 C   0  0  0  0  0  0  0  0  0  3  0  0
   36.6153   44.6967   53.9370 C   0  0  0  0  0  0  0  0  0  4  0  0
   37.5920   45.4408   54.5583 C   0  0  0  0  0  0  0  0  0  5  0  0
   38.0258   45.0938   55.8466 C   0  0  0  0  0  0  0  0  0  6  0  0
   36.4191   45.2703   52.7317 N   0  0  0  0  0  0  0  0  0  7  0  0
   37.2370   46.3377   52.5880 C   0  0  0  0  0  0  0  0  0  8  0  0
   37.9565   46.4344   53.7201 N   0  0  0  0  0  0  0  0  0  9  0  0
   39.4803   43.7924   58.4222 S   0  0  1  0  0  6  0  0  0 10  0  0
   40.3005   44.6136   57.4259 O   0  0  0  0  0  0  0  0  0 11  0  0
   39.4799   44.6104   59.6986 O   0  0  0  0  0  0  0  0  0 12  0  0
   41.7470   42.6720   59.1767 C   0  0  0  0  0  0  0  0  0 13  0  0
   37.9185   43.6062   57.8138 N   0  0  0  0  0  0  0  0  0 14  0  0
   42.7653   42.9465   58.3175 C   0  0  0  0  0  0  0  0  0 15  0  0
   44.0417   43.3068   58.7629 C   0  0  0  0  0  0  0  0  0 16  0  0
   44.2434   43.3773   60.1087 C   0  0  0  0  0  0  0  0  0 17  0  0
   43.2249   43.1032   61.0078 C   0  0  0  0  0  0  0  0  0 18  0  0
   41.9598   42.7458   60.5334 C   0  0  0  0  0  0  0  0  0 19  0  0
   40.3710   42.2833   58.6679 C   0  0  0  0  0  0  0  0  0 20  0  0
  1  2  2  0
  2  3  1  0
  3  4  2  0
  4  5  1  0
  5  6  2  0
  6  1  1  0
  4  7  1  0
  7  8  1  0
  8  9  2  0
  9  5  1  0
 10 11  2  0
 10 12  2  0
  1 14  1  0
 10 14  1  6
 13 15  2  0
 15 16  1  0
 16 17  2  0
 17 18  1  0
 18 19  2  0
 19 13  1  0
 20 13  1  6
 20 10  1  0
M  END
>  <fitscore>  (32) 
0.131631

$$$$
sQC_Substrate__STK936575_rank_32
     RDKit          3D

 20 22  0  0  0  0  0  0  0  0999 V2000
   38.0301   43.0441   56.4767 C   0  0  0  0  0  0  0  0  0  1  0  0
   36.9726   43.9656   56.4332 C   0  0  0  0  0  0  0  0  0  2  0  0
   36.4868   44.4922   55.2596 C   0  0  0  0  0  0  0  0  0  3  0  0
   37.0532   44.1086   54.0549 C   0  0  0  0  0  0  0  0  0  4  0  0
   38.0926   43.2068   54.0597 C   0  0  0  0  0  0  0  0  0  5  0  0
   38.5661   42.6878   55.2741 C   0  0  0  0  0  0  0  0  0  6  0  0
   36.8319   44.4161   52.7599 N   0  0  0  0  0  0  0  0  0  7  0  0
   37.6945   43.7386   51.9689 C   0  0  0  0  0  0  0  0  0  8  0  0
   38.4680   42.9955   52.7802 N   0  0  0  0  0  0  0  0  0  9  0  0
   39.1446   43.4843   58.9445 S   0  0  1  0  0  6  0  0  0 10  0  0
   38.1097   44.4912   59.4490 O   0  0  0  0  0  0  0  0  0 11  0  0
   39.5003   42.6463   60.1567 O   0  0  0  0  0  0  0  0  0 12  0  0
   40.9997   45.2260   59.6425 C   0  0  0  0  0  0  0  0  0 13  0  0
   38.4395   42.5435   57.7354 N   0  0  0  0  0  0  0  0  0 14  0  0
   41.8963   44.7108   60.5264 C   0  0  0  0  0  0  0  0  0 15  0  0
   42.3292   45.4217   61.6510 C   0  0  0  0  0  0  0  0  0 16  0  0
   41.8188   46.6706   61.8426 C   0  0  0  0  0  0  0  0  0 17  0  0
   40.9040   47.2212   60.9589 C   0  0  0  0  0  0  0  0  0 18  0  0
   40.4899   46.4873   59.8440 C   0  0  0  0  0  0  0  0  0 19  0  0
   40.5460   44.4341   58.4299 C   0  0  0  0  0  0  0  0  0 20  0  0
  1  2  2  0
  2  3  1  0
  3  4  2  0
  4  5  1  0
  5  6  2  0
  6  1  1  0
  4  7  1  0
  7  8  1  0
  8  9  2  0
  9  5  1  0
 10 11  2  0
 10 12  2  0
  1 14  1  0
 10 14  1  6
 13 15  2  0
 15 16  1  0
 16 17  2  0
 17 18  1  0
 18 19  2  0
 19 13  1  0
 20 13  1  6
 20 10  1  0
M  END
>  <fitscore>  (33) 
0.130324

$$$$
sQC_Substrate__STK936575_rank_33
     RDKit          3D

 20 22  0  0  0  0  0  0  0  0999 V2000
   37.2935   43.2510   55.9484 C   0  0  0  0  0  0  0  0  0  1  0  0
   36.0867   43.9568   55.8267 C   0  0  0  0  0  0  0  0  0  2  0  0
   35.8085   44.7859   54.7656 C   0  0  0  0  0  0  0  0  0  3  0  0
   36.7489   44.9451   53.7607 C   0  0  0  0  0  0  0  0  0  4  0  0
   37.9440   44.2684   53.8475 C   0  0  0  0  0  0  0  0  0  5  0  0
   38.1981   43.4301   54.9434 C   0  0  0  0  0  0  0  0  0  6  0  0
   36.8042   45.6549   52.6147 N   0  0  0  0  0  0  0  0  0  7  0  0
   37.9865   45.4410   51.9939 C   0  0  0  0  0  0  0  0  0  8  0  0
   38.6824   44.5843   52.7623 N   0  0  0  0  0  0  0  0  0  9  0  0
   38.6000   42.6774   58.2915 S   0  0  1  0  0  6  0  0  0 10  0  0
   37.9841   43.6218   59.3252 O   0  0  0  0  0  0  0  0  0 11  0  0
   38.9028   41.4033   59.0553 O   0  0  0  0  0  0  0  0  0 12  0  0
   40.6343   44.2233   58.9501 C   0  0  0  0  0  0  0  0  0 13  0  0
   37.4717   42.4042   57.0681 N   0  0  0  0  0  0  0  0  0 14  0  0
   40.2272   45.4985   59.1926 C   0  0  0  0  0  0  0  0  0 15  0  0
   40.7003   46.2393   60.2811 C   0  0  0  0  0  0  0  0  0 16  0  0
   41.5989   45.6378   61.1104 C   0  0  0  0  0  0  0  0  0 17  0  0
   42.0316   44.3400   60.8884 C   0  0  0  0  0  0  0  0  0 18  0  0
   41.5415   43.6244   59.7926 C   0  0  0  0  0  0  0  0  0 19  0  0
   40.1058   43.4409   57.7619 C   0  0  0  0  0  0  0  0  0 20  0  0
  1  2  2  0
  2  3  1  0
  3  4  2  0
  4  5  1  0
  5  6  2  0
  6  1  1  0
  4  7  1  0
  7  8  1  0
  8  9  2  0
  9  5  1  0
 10 11  2  0
 10 12  2  0
  1 14  1  0
 10 14  1  6
 13 15  2  0
 15 16  1  0
 16 17  2  0
 17 18  1  0
 18 19  2  0
 19 13  1  0
 20 13  1  6
 20 10  1  0
M  END
>  <fitscore>  (34) 
0.125247

$$$$
sQC_Substrate__STK936575_rank_34
     RDKit          3D

 20 22  0  0  0  0  0  0  0  0999 V2000
   38.9644   42.6441   56.0325 C   0  0  0  0  0  0  0  0  0  1  0  0
   39.5898   41.9767   54.9682 C   0  0  0  0  0  0  0  0  0  2  0  0
   39.2303   42.1624   53.6540 C   0  0  0  0  0  0  0  0  0  3  0  0
   38.2069   43.0438   53.3458 C   0  0  0  0  0  0  0  0  0  4  0  0
   37.5708   43.7154   54.3646 C   0  0  0  0  0  0  0  0  0  5  0  0
   37.9606   43.5038   55.6956 C   0  0  0  0  0  0  0  0  0  6  0  0
   37.6169   43.4531   52.2035 N   0  0  0  0  0  0  0  0  0  7  0  0
   36.6433   44.3499   52.4804 C   0  0  0  0  0  0  0  0  0  8  0  0
   36.6228   44.5049   53.8162 N   0  0  0  0  0  0  0  0  0  9  0  0
   39.3421   43.5234   58.6035 S   0  0  1  0  0  6  0  0  0 10  0  0
   37.8802   43.9254   58.8057 O   0  0  0  0  0  0  0  0  0 11  0  0
   39.7656   42.9069   59.9222 O   0  0  0  0  0  0  0  0  0 12  0  0
   40.3371   45.7244   59.6656 C   0  0  0  0  0  0  0  0  0 13  0  0
   39.4260   42.4006   57.3479 N   0  0  0  0  0  0  0  0  0 14  0  0
   39.3504   46.5476   60.1120 C   0  0  0  0  0  0  0  0  0 15  0  0
   39.4249   47.2015   61.3467 C   0  0  0  0  0  0  0  0  0 16  0  0
   40.5352   46.9881   62.1072 C   0  0  0  0  0  0  0  0  0 17  0  0
   41.5564   46.1549   61.6783 C   0  0  0  0  0  0  0  0  0 18  0  0
   41.4541   45.5150   60.4400 C   0  0  0  0  0  0  0  0  0 19  0  0
   40.2320   45.0266   58.3219 C   0  0  0  0  0  0  0  0  0 20  0  0
  1  2  2  0
  2  3  1  0
  3  4  2  0
  4  5  1  0
  5  6  2  0
  6  1  1  0
  4  7  1  0
  7  8  1  0
  8  9  2  0
  9  5  1  0
 10 11  2  0
 10 12  2  0
  1 14  1  0
 10 14  1  6
 13 15  2  0
 15 16  1  0
 16 17  2  0
 17 18  1  0
 18 19  2  0
 19 13  1  0
 20 13  1  6
 20 10  1  0
M  END
>  <fitscore>  (35) 
0.109292

$$$$
sQC_Substrate__STK936575_rank_35
     RDKit          3D

 20 22  0  0  0  0  0  0  0  0999 V2000
   38.0655   44.4750   56.4001 C   0  0  0  0  0  0  0  0  0  1  0  0
   36.9447   43.8203   55.8665 C   0  0  0  0  0  0  0  0  0  2  0  0
   36.7409   43.6664   54.5154 C   0  0  0  0  0  0  0  0  0  3  0  0
   37.6723   44.1735   53.6239 C   0  0  0  0  0  0  0  0  0  4  0  0
   38.7836   44.8221   54.1118 C   0  0  0  0  0  0  0  0  0  5  0  0
   38.9626   44.9632   55.4961 C   0  0  0  0  0  0  0  0  0  6  0  0
   37.7848   44.2000   52.2796 N   0  0  0  0  0  0  0  0  0  7  0  0
   38.9216   44.8395   51.9225 C   0  0  0  0  0  0  0  0  0  8  0  0
   39.5306   45.2193   53.0598 N   0  0  0  0  0  0  0  0  0  9  0  0
   39.5287   43.9977   58.6710 S   0  0  1  0  0  6  0  0  0 10  0  0
   40.6497   43.6692   57.6834 O   0  0  0  0  0  0  0  0  0 11  0  0
   40.0991   45.0799   59.5664 O   0  0  0  0  0  0  0  0  0 12  0  0
   40.3948   42.4097   60.5920 C   0  0  0  0  0  0  0  0  0 13  0  0
   38.1935   44.5588   57.8069 N   0  0  0  0  0  0  0  0  0 14  0  0
   40.2248   42.7066   61.9086 C   0  0  0  0  0  0  0  0  0 15  0  0
   41.2676   42.6109   62.8365 C   0  0  0  0  0  0  0  0  0 16  0  0
   42.4845   42.2039   62.3778 C   0  0  0  0  0  0  0  0  0 17  0  0
   42.6873   41.8948   61.0420 C   0  0  0  0  0  0  0  0  0 18  0  0
   41.6266   41.9997   60.1381 C   0  0  0  0  0  0  0  0  0 19  0  0
   39.2471   42.5217   59.6053 C   0  0  0  0  0  0  0  0  0 20  0  0
  1  2  2  0
  2  3  1  0
  3  4  2  0
  4  5  1  0
  5  6  2  0
  6  1  1  0
  4  7  1  0
  7  8  1  0
  8  9  2  0
  9  5  1  0
 10 11  2  0
 10 12  2  0
  1 14  1  0
 10 14  1  6
 13 15  2  0
 15 16  1  0
 16 17  2  0
 17 18  1  0
 18 19  2  0
 19 13  1  0
 20 13  1  6
 20 10  1  0
M  END
>  <fitscore>  (36) 
0.0755088

$$$$
sQC_Substrate__STK936575_rank_36
     RDKit          3D

 20 22  0  0  0  0  0  0  0  0999 V2000
   38.3894   43.8133   55.4412 C   0  0  0  0  0  0  0  0  0  1  0  0
   37.0973   44.0902   54.9686 C   0  0  0  0  0  0  0  0  0  2  0  0
   36.8335   45.0727   54.0435 C   0  0  0  0  0  0  0  0  0  3  0  0
   37.8766   45.8348   53.5429 C   0  0  0  0  0  0  0  0  0  4  0  0
   39.1570   45.5911   53.9844 C   0  0  0  0  0  0  0  0  0  5  0  0
   39.3935   44.5816   54.9295 C   0  0  0  0  0  0  0  0  0  6  0  0
   37.9740   46.8457   52.6547 N   0  0  0  0  0  0  0  0  0  7  0  0
   39.2640   47.2327   52.5331 C   0  0  0  0  0  0  0  0  0  8  0  0
   39.9858   46.4528   53.3573 N   0  0  0  0  0  0  0  0  0  9  0  0
   38.9268   42.9977   58.0047 S   0  0  1  0  0  6  0  0  0 10  0  0
   38.0015   44.0775   58.5681 O   0  0  0  0  0  0  0  0  0 11  0  0
   38.6243   41.7566   58.8211 O   0  0  0  0  0  0  0  0  0 12  0  0
   40.8227   43.3396   59.8077 C   0  0  0  0  0  0  0  0  0 13  0  0
   38.5572   42.7642   56.3759 N   0  0  0  0  0  0  0  0  0 14  0  0
   40.6185   44.3424   60.7040 C   0  0  0  0  0  0  0  0  0 15  0  0
   40.8373   44.1742   62.0756 C   0  0  0  0  0  0  0  0  0 16  0  0
   41.2696   42.9537   62.5002 C   0  0  0  0  0  0  0  0  0 17  0  0
   41.4863   41.9135   61.6102 C   0  0  0  0  0  0  0  0  0 18  0  0
   41.2591   42.1111   60.2455 C   0  0  0  0  0  0  0  0  0 19  0  0
   40.5779   43.5478   58.3244 C   0  0  0  0  0  0  0  0  0 20  0  0
  1  2  2  0
  2  3  1  0
  3  4  2  0
  4  5  1  0
  5  6  2  0
  6  1  1  0
  4  7  1  0
  7  8  1  0
  8  9  2  0
  9  5  1  0
 10 11  2  0
 10 12  2  0
  1 14  1  0
 10 14  1  6
 13 15  2  0
 15 16  1  0
 16 17  2  0
 17 18  1  0
 18 19  2  0
 19 13  1  0
 20 13  1  6
 20 10  1  0
M  END
>  <fitscore>  (37) 
0.075335

$$$$
sQC_Substrate__STK936575_rank_37
     RDKit          3D

 20 22  0  0  0  0  0  0  0  0999 V2000
   38.1012   44.3563   56.0610 C   0  0  0  0  0  0  0  0  0  1  0  0
   37.0242   44.0782   55.2054 C   0  0  0  0  0  0  0  0  0  2  0  0
   36.9513   44.5510   53.9162 C   0  0  0  0  0  0  0  0  0  3  0  0
   37.9772   45.3393   53.4207 C   0  0  0  0  0  0  0  0  0  4  0  0
   39.0492   45.6326   54.2322 C   0  0  0  0  0  0  0  0  0  5  0  0
   39.0939   45.1353   55.5433 C   0  0  0  0  0  0  0  0  0  6  0  0
   38.2224   45.9502   52.2430 N   0  0  0  0  0  0  0  0  0  7  0  0
   39.4030   46.6074   52.2990 C   0  0  0  0  0  0  0  0  0  8  0  0
   39.9051   46.4054   53.5301 N   0  0  0  0  0  0  0  0  0  9  0  0
   38.5512   44.6384   58.7524 S   0  0  1  0  0  6  0  0  0 10  0  0
   38.5828   46.1346   58.4360 O   0  0  0  0  0  0  0  0  0 11  0  0
   37.5168   44.4913   59.8508 O   0  0  0  0  0  0  0  0  0 12  0  0
   40.1234   42.7567   59.7269 C   0  0  0  0  0  0  0  0  0 13  0  0
   38.0917   43.8010   57.3625 N   0  0  0  0  0  0  0  0  0 14  0  0
   39.4939   42.3154   60.8492 C   0  0  0  0  0  0  0  0  0 15  0  0
   39.4489   40.9609   61.1967 C   0  0  0  0  0  0  0  0  0 16  0  0
   40.0650   40.0755   60.3640 C   0  0  0  0  0  0  0  0  0 17  0  0
   40.7140   40.4959   59.2138 C   0  0  0  0  0  0  0  0  0 18  0  0
   40.7425   41.8557   58.8924 C   0  0  0  0  0  0  0  0  0 19  0  0
   40.1579   44.2320   59.3723 C   0  0  0  0  0  0  0  0  0 20  0  0
  1  2  2  0
  2  3  1  0
  3  4  2  0
  4  5  1  0
  5  6  2  0
  6  1  1  0
  4  7  1  0
  7  8  1  0
  8  9  2  0
  9  5  1  0
 10 11  2  0
 10 12  2  0
  1 14  1  0
 10 14  1  6
 13 15  2  0
 15 16  1  0
 16 17  2  0
 17 18  1  0
 18 19  2  0
 19 13  1  0
 20 13  1  6
 20 10  1  0
M  END
>  <fitscore>  (38) 
0.0725106

$$$$
sQC_Substrate__STK936575_rank_38
     RDKit          3D

 20 22  0  0  0  0  0  0  0  0999 V2000
   39.1930   44.5373   56.4030 C   0  0  0  0  0  0  0  0  0  1  0  0
   38.3119   45.6223   56.5298 C   0  0  0  0  0  0  0  0  0  2  0  0
   38.2540   46.6497   55.6178 C   0  0  0  0  0  0  0  0  0  3  0  0
   39.0950   46.6316   54.5170 C   0  0  0  0  0  0  0  0  0  4  0  0
   39.9725   45.5832   54.3608 C   0  0  0  0  0  0  0  0  0  5  0  0
   40.0078   44.5500   55.3092 C   0  0  0  0  0  0  0  0  0  6  0  0
   39.2971   47.4479   53.4619 N   0  0  0  0  0  0  0  0  0  7  0  0
   40.2643   46.9421   52.6635 C   0  0  0  0  0  0  0  0  0  8  0  0
   40.6745   45.7918   53.2265 N   0  0  0  0  0  0  0  0  0  9  0  0
   37.7397   42.8068   57.9583 S   0  0  1  0  0  6  0  0  0 10  0  0
   37.1946   43.6561   59.1078 O   0  0  0  0  0  0  0  0  0 11  0  0
   36.6492   42.8251   56.9054 O   0  0  0  0  0  0  0  0  0 12  0  0
   39.0276   41.2476   59.6531 C   0  0  0  0  0  0  0  0  0 13  0  0
   39.1569   43.5186   57.3845 N   0  0  0  0  0  0  0  0  0 14  0  0
   40.3360   41.0767   59.3224 C   0  0  0  0  0  0  0  0  0 15  0  0
   41.3613   41.1431   60.2721 C   0  0  0  0  0  0  0  0  0 16  0  0
   41.0082   41.3886   61.5651 C   0  0  0  0  0  0  0  0  0 17  0  0
   39.6834   41.5669   61.9315 C   0  0  0  0  0  0  0  0  0 18  0  0
   38.6806   41.4950   60.9607 C   0  0  0  0  0  0  0  0  0 19  0  0
   37.9340   41.1707   58.6036 C   0  0  0  0  0  0  0  0  0 20  0  0
  1  2  2  0
  2  3  1  0
  3  4  2  0
  4  5  1  0
  5  6  2  0
  6  1  1  0
  4  7  1  0
  7  8  1  0
  8  9  2  0
  9  5  1  0
 10 11  2  0
 10 12  2  0
  1 14  1  0
 10 14  1  6
 13 15  2  0
 15 16  1  0
 16 17  2  0
 17 18  1  0
 18 19  2  0
 19 13  1  0
 20 13  1  6
 20 10  1  0
M  END
>  <fitscore>  (39) 
0.0574563

$$$$
sQC_Substrate__STK936575_rank_39
     RDKit          3D

 20 22  0  0  0  0  0  0  0  0999 V2000
   38.9801   43.2183   56.3974 C   0  0  0  0  0  0  0  0  0  1  0  0
   39.8568   42.5015   55.5685 C   0  0  0  0  0  0  0  0  0  2  0  0
   39.5750   42.2118   54.2542 C   0  0  0  0  0  0  0  0  0  3  0  0
   38.3768   42.6379   53.7046 C   0  0  0  0  0  0  0  0  0  4  0  0
   37.4926   43.3431   54.4885 C   0  0  0  0  0  0  0  0  0  5  0  0
   37.8092   43.6225   55.8264 C   0  0  0  0  0  0  0  0  0  6  0  0
   37.7973   42.5324   52.4907 N   0  0  0  0  0  0  0  0  0  7  0  0
   36.5918   43.1452   52.4981 C   0  0  0  0  0  0  0  0  0  8  0  0
   36.4131   43.6421   53.7349 N   0  0  0  0  0  0  0  0  0  9  0  0
   38.6903   44.6836   58.6985 S   0  0  1  0  0  6  0  0  0 10  0  0
   39.5602   45.9390   58.6152 O   0  0  0  0  0  0  0  0  0 11  0  0
   37.3346   45.1098   58.1705 O   0  0  0  0  0  0  0  0  0 12  0  0
   39.9951   44.2204   60.9447 C   0  0  0  0  0  0  0  0  0 13  0  0
   39.3755   43.4852   57.7297 N   0  0  0  0  0  0  0  0  0 14  0  0
   40.2653   43.7563   62.1946 C   0  0  0  0  0  0  0  0  0 15  0  0
   41.5673   43.6934   62.7026 C   0  0  0  0  0  0  0  0  0 16  0  0
   42.5802   44.1180   61.8959 C   0  0  0  0  0  0  0  0  0 17  0  0
   42.3351   44.5957   60.6181 C   0  0  0  0  0  0  0  0  0 18  0  0
   41.0237   44.6468   60.1376 C   0  0  0  0  0  0  0  0  0 19  0  0
   38.5732   44.2785   60.4169 C   0  0  0  0  0  0  0  0  0 20  0  0
  1  2  2  0
  2  3  1  0
  3  4  2  0
  4  5  1  0
  5  6  2  0
  6  1  1  0
  4  7  1  0
  7  8  1  0
  8  9  2  0
  9  5  1  0
 10 11  2  0
 10 12  2  0
  1 14  1  0
 10 14  1  6
 13 15  2  0
 15 16  1  0
 16 17  2  0
 17 18  1  0
 18 19  2  0
 19 13  1  0
 20 13  1  6
 20 10  1  0
M  END
>  <fitscore>  (40) 
-0.00964985

$$$$
