sQC_Substrate__STK936575_rank_0
     RDKit          3D

 20 22  0  0  0  0  0  0  0  0999 V2000
   38.2687   43.3819   55.8600 C   0  0  0  0  0  0  0  0  0  1  0  0
   39.1664   43.2157   54.7942 C   0  0  0  0  0  0  0  0  0  2  0  0
   38.9361   43.7210   53.5363 C   0  0  0  0  0  0  0  0  0  3  0  0
   37.7712   44.4292   53.2893 C   0  0  0  0  0  0  0  0  0  4  0  0
   36.8678   44.6112   54.3113 C   0  0  0  0  0  0  0  0  0  5  0  0
   37.1316   44.0828   55.5838 C   0  0  0  0  0  0  0  0  0  6  0  0
   37.2428   45.0430   52.2103 N   0  0  0  0  0  0  0  0  0  7  0  0
   36.0502   45.5951   52.5291 C   0  0  0  0  0  0  0  0  0  8  0  0
   35.8278   45.3232   53.8273 N   0  0  0  0  0  0  0  0  0  9  0  0
   39.9045   43.3808   58.0623 S   0  0  1  0  0  6  0  0  0 10  0  0
   41.0087   42.3228   58.0287 O   0  0  0  0  0  0  0  0  0 11  0  0
   40.5352   44.6254   57.4695 O   0  0  0  0  0  0  0  0  0 12  0  0
   40.7766   44.2314   60.4028 C   0  0  0  0  0  0  0  0  0 13  0  0
   38.6112   42.8431   57.1229 N   0  0  0  0  0  0  0  0  0 14  0  0
   41.8965   43.4798   60.5805 C   0  0  0  0  0  0  0  0  0 15  0  0
   43.0594   43.9979   61.1605 C   0  0  0  0  0  0  0  0  0 16  0  0
   43.0415   45.3032   61.5516 C   0  0  0  0  0  0  0  0  0 17  0  0
   41.9151   46.0931   61.3833 C   0  0  0  0  0  0  0  0  0 18  0  0
   40.7677   45.5479   60.8006 C   0  0  0  0  0  0  0  0  0 19  0  0
   39.5274   43.6454   59.7707 C   0  0  0  0  0  0  0  0  0 20  0  0
  1  2  2  0
  2  3  1  0
  3  4  2  0
  4  5  1  0
  5  6  2  0
  6  1  1  0
  4  7  1  0
  7  8  1  0
  8  9  2  0
  9  5  1  0
 10 11  2  0
 10 12  2  0
  1 14  1  0
 10 14  1  6
 13 15  2  0
 15 16  1  0
 16 17  2  0
 17 18  1  0
 18 19  2  0
 19 13  1  0
 20 13  1  6
 20 10  1  0
M  END
>  <fitscore>  (1) 
0.478094

$$$$
sQC_Substrate__STK936575_rank_1
     RDKit          3D

 20 22  0  0  0  0  0  0  0  0999 V2000
   37.9319   43.5724   56.4101 C   0  0  0  0  0  0  0  0  0  1  0  0
   39.0349   43.4669   55.5489 C   0  0  0  0  0  0  0  0  0  2  0  0
   39.0974   44.1034   54.3317 C   0  0  0  0  0  0  0  0  0  3  0  0
   38.0337   44.8891   53.9185 C   0  0  0  0  0  0  0  0  0  4  0  0
   36.9351   45.0149   54.7375 C   0  0  0  0  0  0  0  0  0  5  0  0
   36.9015   44.3523   55.9736 C   0  0  0  0  0  0  0  0  0  6  0  0
   37.7694   45.6308   52.8228 N   0  0  0  0  0  0  0  0  0  7  0  0
   36.5514   46.2074   52.9365 C   0  0  0  0  0  0  0  0  0  8  0  0
   36.0449   45.8214   54.1210 N   0  0  0  0  0  0  0  0  0  9  0  0
   39.2978   42.9291   58.7006 S   0  0  1  0  0  6  0  0  0 10  0  0
   38.8188   42.5599   60.1056 O   0  0  0  0  0  0  0  0  0 11  0  0
   40.3133   41.8630   58.3394 O   0  0  0  0  0  0  0  0  0 12  0  0
   41.1125   44.3663   59.9667 C   0  0  0  0  0  0  0  0  0 13  0  0
   37.9769   42.8965   57.6526 N   0  0  0  0  0  0  0  0  0 14  0  0
   40.7305   44.3625   61.2724 C   0  0  0  0  0  0  0  0  0 15  0  0
   41.6503   44.2388   62.3193 C   0  0  0  0  0  0  0  0  0 16  0  0
   42.9674   44.1197   61.9908 C   0  0  0  0  0  0  0  0  0 17  0  0
   43.3860   44.1204   60.6695 C   0  0  0  0  0  0  0  0  0 18  0  0
   42.4441   44.2456   59.6447 C   0  0  0  0  0  0  0  0  0 19  0  0
   40.0947   44.5019   58.8492 C   0  0  0  0  0  0  0  0  0 20  0  0
  1  2  2  0
  2  3  1  0
  3  4  2  0
  4  5  1  0
  5  6  2  0
  6  1  1  0
  4  7  1  0
  7  8  1  0
  8  9  2  0
  9  5  1  0
 10 11  2  0
 10 12  2  0
  1 14  1  0
 10 14  1  6
 13 15  2  0
 15 16  1  0
 16 17  2  0
 17 18  1  0
 18 19  2  0
 19 13  1  0
 20 13  1  6
 20 10  1  0
M  END
>  <fitscore>  (2) 
0.446999

$$$$
sQC_Substrate__STK936575_rank_2
     RDKit          3D

 20 22  0  0  0  0  0  0  0  0999 V2000
   38.9604   43.8927   56.0610 C   0  0  0  0  0  0  0  0  0  1  0  0
   39.8563   43.9333   54.9817 C   0  0  0  0  0  0  0  0  0  2  0  0
   39.6729   44.7449   53.8870 C   0  0  0  0  0  0  0  0  0  3  0  0
   38.5595   45.5673   53.8278 C   0  0  0  0  0  0  0  0  0  4  0  0
   37.6593   45.5532   54.8685 C   0  0  0  0  0  0  0  0  0  5  0  0
   37.8746   44.7133   55.9715 C   0  0  0  0  0  0  0  0  0  6  0  0
   38.0838   46.4599   52.9348 N   0  0  0  0  0  0  0  0  0  7  0  0
   36.9266   46.9948   53.3861 C   0  0  0  0  0  0  0  0  0  8  0  0
   36.6733   46.4290   54.5795 N   0  0  0  0  0  0  0  0  0  9  0  0
   40.6662   43.1278   58.0688 S   0  0  1  0  0  6  0  0  0 10  0  0
   40.9168   41.7645   58.7157 O   0  0  0  0  0  0  0  0  0 11  0  0
   41.8776   43.3744   57.1913 O   0  0  0  0  0  0  0  0  0 12  0  0
   39.2661   44.1608   60.0523 C   0  0  0  0  0  0  0  0  0 13  0  0
   39.2536   43.0400   57.1516 N   0  0  0  0  0  0  0  0  0 14  0  0
   38.8856   42.9960   60.6432 C   0  0  0  0  0  0  0  0  0 15  0  0
   37.6381   42.8429   61.2575 C   0  0  0  0  0  0  0  0  0 16  0  0
   36.7952   43.9136   61.2489 C   0  0  0  0  0  0  0  0  0 17  0  0
   37.1556   45.1128   60.6547 C   0  0  0  0  0  0  0  0  0 18  0  0
   38.4088   45.2362   60.0485 C   0  0  0  0  0  0  0  0  0 19  0  0
   40.6256   44.3013   59.3924 C   0  0  0  0  0  0  0  0  0 20  0  0
  1  2  2  0
  2  3  1  0
  3  4  2  0
  4  5  1  0
  5  6  2  0
  6  1  1  0
  4  7  1  0
  7  8  1  0
  8  9  2  0
  9  5  1  0
 10 11  2  0
 10 12  2  0
  1 14  1  0
 10 14  1  6
 13 15  2  0
 15 16  1  0
 16 17  2  0
 17 18  1  0
 18 19  2  0
 19 13  1  0
 20 13  1  6
 20 10  1  0
M  END
>  <fitscore>  (3) 
0.446536

$$$$
sQC_Substrate__STK936575_rank_3
     RDKit          3D

 20 22  0  0  0  0  0  0  0  0999 V2000
   38.5755   43.6204   56.5889 C   0  0  0  0  0  0  0  0  0  1  0  0
   37.2823   43.7155   57.1256 C   0  0  0  0  0  0  0  0  0  2  0  0
   36.3154   44.5432   56.6055 C   0  0  0  0  0  0  0  0  0  3  0  0
   36.6111   45.3269   55.5020 C   0  0  0  0  0  0  0  0  0  4  0  0
   37.8697   45.2596   54.9498 C   0  0  0  0  0  0  0  0  0  5  0  0
   38.8347   44.4053   55.5040 C   0  0  0  0  0  0  0  0  0  6  0  0
   35.9250   46.2205   54.7596 N   0  0  0  0  0  0  0  0  0  7  0  0
   36.7127   46.7048   53.7728 C   0  0  0  0  0  0  0  0  0  8  0  0
   37.9102   46.1060   53.8986 N   0  0  0  0  0  0  0  0  0  9  0  0
   40.7112   43.1780   58.2530 S   0  0  1  0  0  6  0  0  0 10  0  0
   41.0824   41.9737   59.1200 O   0  0  0  0  0  0  0  0  0 11  0  0
   41.9848   43.5362   57.5128 O   0  0  0  0  0  0  0  0  0 12  0  0
   39.3902   43.8491   60.4363 C   0  0  0  0  0  0  0  0  0 13  0  0
   39.4901   42.7193   57.1840 N   0  0  0  0  0  0  0  0  0 14  0  0
   38.3087   44.5082   60.9329 C   0  0  0  0  0  0  0  0  0 15  0  0
   37.4795   43.9511   61.9124 C   0  0  0  0  0  0  0  0  0 16  0  0
   37.7895   42.7043   62.3663 C   0  0  0  0  0  0  0  0  0 17  0  0
   38.8849   42.0089   61.8790 C   0  0  0  0  0  0  0  0  0 18  0  0
   39.6953   42.5910   60.9004 C   0  0  0  0  0  0  0  0  0 19  0  0
   40.2741   44.4758   59.3736 C   0  0  0  0  0  0  0  0  0 20  0  0
  1  2  2  0
  2  3  1  0
  3  4  2  0
  4  5  1  0
  5  6  2  0
  6  1  1  0
  4  7  1  0
  7  8  1  0
  8  9  2  0
  9  5  1  0
 10 11  2  0
 10 12  2  0
  1 14  1  0
 10 14  1  6
 13 15  2  0
 15 16  1  0
 16 17  2  0
 17 18  1  0
 18 19  2  0
 19 13  1  0
 20 13  1  6
 20 10  1  0
M  END
>  <fitscore>  (4) 
0.420901

$$$$
sQC_Substrate__STK936575_rank_4
     RDKit          3D

 20 22  0  0  0  0  0  0  0  0999 V2000
   38.3529   43.5183   56.1193 C   0  0  0  0  0  0  0  0  0  1  0  0
   39.5530   43.6829   55.4106 C   0  0  0  0  0  0  0  0  0  2  0  0
   39.6543   44.4605   54.2811 C   0  0  0  0  0  0  0  0  0  3  0  0
   38.5326   45.1196   53.8049 C   0  0  0  0  0  0  0  0  0  4  0  0
   37.3385   44.9806   54.4747 C   0  0  0  0  0  0  0  0  0  5  0  0
   37.2675   44.1795   55.6242 C   0  0  0  0  0  0  0  0  0  6  0  0
   38.2820   45.9367   52.7609 N   0  0  0  0  0  0  0  0  0  7  0  0
   36.9809   46.3053   52.7629 C   0  0  0  0  0  0  0  0  0  8  0  0
   36.4074   45.7102   53.8239 N   0  0  0  0  0  0  0  0  0  9  0  0
   39.3370   43.0061   58.6283 S   0  0  1  0  0  6  0  0  0 10  0  0
   38.4481   43.4311   59.7983 O   0  0  0  0  0  0  0  0  0 11  0  0
   40.0213   41.7368   59.0962 O   0  0  0  0  0  0  0  0  0 12  0  0
   41.6086   44.0601   59.4595 C   0  0  0  0  0  0  0  0  0 13  0  0
   38.3604   42.7153   57.2845 N   0  0  0  0  0  0  0  0  0 14  0  0
   42.7339   43.3570   59.1596 C   0  0  0  0  0  0  0  0  0 15  0  0
   43.7429   43.1253   60.1007 C   0  0  0  0  0  0  0  0  0 16  0  0
   43.5659   43.6329   61.3529 C   0  0  0  0  0  0  0  0  0 17  0  0
   42.4299   44.3531   61.6873 C   0  0  0  0  0  0  0  0  0 18  0  0
   41.4386   44.5687   60.7260 C   0  0  0  0  0  0  0  0  0 19  0  0
   40.5285   44.2976   58.4202 C   0  0  0  0  0  0  0  0  0 20  0  0
  1  2  2  0
  2  3  1  0
  3  4  2  0
  4  5  1  0
  5  6  2  0
  6  1  1  0
  4  7  1  0
  7  8  1  0
  8  9  2  0
  9  5  1  0
 10 11  2  0
 10 12  2  0
  1 14  1  0
 10 14  1  6
 13 15  2  0
 15 16  1  0
 16 17  2  0
 17 18  1  0
 18 19  2  0
 19 13  1  0
 20 13  1  6
 20 10  1  0
M  END
>  <fitscore>  (5) 
0.399425

$$$$
sQC_Substrate__STK936575_rank_5
     RDKit          3D

 20 22  0  0  0  0  0  0  0  0999 V2000
   38.8251   43.7171   56.4905 C   0  0  0  0  0  0  0  0  0  1  0  0
   38.2729   45.0041   56.5811 C   0  0  0  0  0  0  0  0  0  2  0  0
   37.7070   45.6528   55.5089 C   0  0  0  0  0  0  0  0  0  3  0  0
   37.6703   45.0245   54.2747 C   0  0  0  0  0  0  0  0  0  4  0  0
   38.2030   43.7620   54.1489 C   0  0  0  0  0  0  0  0  0  5  0  0
   38.7739   43.1268   55.2620 C   0  0  0  0  0  0  0  0  0  6  0  0
   37.2065   45.3575   53.0522 N   0  0  0  0  0  0  0  0  0  7  0  0
   37.4333   44.3490   52.1802 C   0  0  0  0  0  0  0  0  0  8  0  0
   38.0484   43.3695   52.8664 N   0  0  0  0  0  0  0  0  0  9  0  0
   40.7750   43.6478   58.4189 S   0  0  1  0  0  6  0  0  0 10  0  0
   41.4755   42.4358   59.0354 O   0  0  0  0  0  0  0  0  0 11  0  0
   41.7655   44.2053   57.4158 O   0  0  0  0  0  0  0  0  0 12  0  0
   39.9168   44.0210   60.8860 C   0  0  0  0  0  0  0  0  0 13  0  0
   39.3618   43.1277   57.6597 N   0  0  0  0  0  0  0  0  0 14  0  0
   40.6714   43.2030   61.6683 C   0  0  0  0  0  0  0  0  0 15  0  0
   40.1262   42.4743   62.7309 C   0  0  0  0  0  0  0  0  0 16  0  0
   38.7908   42.6077   62.9675 C   0  0  0  0  0  0  0  0  0 17  0  0
   37.9972   43.4337   62.1872 C   0  0  0  0  0  0  0  0  0 18  0  0
   38.5699   44.1495   61.1323 C   0  0  0  0  0  0  0  0  0 19  0  0
   40.5326   44.8010   59.7389 C   0  0  0  0  0  0  0  0  0 20  0  0
  1  2  2  0
  2  3  1  0
  3  4  2  0
  4  5  1  0
  5  6  2  0
  6  1  1  0
  4  7  1  0
  7  8  1  0
  8  9  2  0
  9  5  1  0
 10 11  2  0
 10 12  2  0
  1 14  1  0
 10 14  1  6
 13 15  2  0
 15 16  1  0
 16 17  2  0
 17 18  1  0
 18 19  2  0
 19 13  1  0
 20 13  1  6
 20 10  1  0
M  END
>  <fitscore>  (6) 
0.392151

$$$$
sQC_Substrate__STK936575_rank_6
     RDKit          3D

 20 22  0  0  0  0  0  0  0  0999 V2000
   38.7640   43.2403   56.4715 C   0  0  0  0  0  0  0  0  0  1  0  0
   38.3755   42.6206   55.2738 C   0  0  0  0  0  0  0  0  0  2  0  0
   37.9168   43.3213   54.1833 C   0  0  0  0  0  0  0  0  0  3  0  0
   37.8267   44.7022   54.2496 C   0  0  0  0  0  0  0  0  0  4  0  0
   38.1989   45.3435   55.4089 C   0  0  0  0  0  0  0  0  0  5  0  0
   38.6625   44.6001   56.5046 C   0  0  0  0  0  0  0  0  0  6  0  0
   37.4335   45.6711   53.3968 N   0  0  0  0  0  0  0  0  0  7  0  0
   37.5495   46.8825   53.9866 C   0  0  0  0  0  0  0  0  0  8  0  0
   38.0224   46.6697   55.2275 N   0  0  0  0  0  0  0  0  0  9  0  0
   40.0635   43.0220   58.8776 S   0  0  1  0  0  6  0  0  0 10  0  0
   41.4778   42.4394   58.8890 O   0  0  0  0  0  0  0  0  0 11  0  0
   40.2581   44.5229   58.7890 O   0  0  0  0  0  0  0  0  0 12  0  0
   40.2643   43.1476   61.5056 C   0  0  0  0  0  0  0  0  0 13  0  0
   39.2452   42.4299   57.5271 N   0  0  0  0  0  0  0  0  0 14  0  0
   41.2570   42.3885   62.0431 C   0  0  0  0  0  0  0  0  0 15  0  0
   42.1195   42.8770   63.0304 C   0  0  0  0  0  0  0  0  0 16  0  0
   41.9359   44.1607   63.4491 C   0  0  0  0  0  0  0  0  0 17  0  0
   40.9331   44.9576   62.9197 C   0  0  0  0  0  0  0  0  0 18  0  0
   40.0865   44.4422   61.9344 C   0  0  0  0  0  0  0  0  0 19  0  0
   39.3417   42.5938   60.4353 C   0  0  0  0  0  0  0  0  0 20  0  0
  1  2  2  0
  2  3  1  0
  3  4  2  0
  4  5  1  0
  5  6  2  0
  6  1  1  0
  4  7  1  0
  7  8  1  0
  8  9  2  0
  9  5  1  0
 10 11  2  0
 10 12  2  0
  1 14  1  0
 10 14  1  6
 13 15  2  0
 15 16  1  0
 16 17  2  0
 17 18  1  0
 18 19  2  0
 19 13  1  0
 20 13  1  6
 20 10  1  0
M  END
>  <fitscore>  (7) 
0.390204

$$$$
sQC_Substrate__STK936575_rank_7
     RDKit          3D

 20 22  0  0  0  0  0  0  0  0999 V2000
   38.2863   43.9492   56.5942 C   0  0  0  0  0  0  0  0  0  1  0  0
   38.9998   43.7355   55.4048 C   0  0  0  0  0  0  0  0  0  2  0  0
   38.7312   44.4134   54.2391 C   0  0  0  0  0  0  0  0  0  3  0  0
   37.7142   45.3540   54.2169 C   0  0  0  0  0  0  0  0  0  4  0  0
   36.9932   45.5891   55.3651 C   0  0  0  0  0  0  0  0  0  5  0  0
   37.2914   44.8806   56.5387 C   0  0  0  0  0  0  0  0  0  6  0  0
   37.1989   46.1745   53.2779 N   0  0  0  0  0  0  0  0  0  7  0  0
   36.1895   46.9046   53.8043 C   0  0  0  0  0  0  0  0  0  8  0  0
   36.0705   46.5362   55.0922 N   0  0  0  0  0  0  0  0  0  9  0  0
   40.1703   43.3178   58.4858 S   0  0  1  0  0  6  0  0  0 10  0  0
   40.6756   41.9014   58.7654 O   0  0  0  0  0  0  0  0  0 11  0  0
   41.1994   43.9246   57.5526 O   0  0  0  0  0  0  0  0  0 12  0  0
   41.4120   43.6684   60.7874 C   0  0  0  0  0  0  0  0  0 13  0  0
   38.6578   43.2167   57.7466 N   0  0  0  0  0  0  0  0  0 14  0  0
   42.5892   44.3484   60.7396 C   0  0  0  0  0  0  0  0  0 15  0  0
   43.7316   43.9125   61.4195 C   0  0  0  0  0  0  0  0  0 16  0  0
   43.6330   42.7644   62.1468 C   0  0  0  0  0  0  0  0  0 17  0  0
   42.4468   42.0506   62.2139 C   0  0  0  0  0  0  0  0  0 18  0  0
   41.3218   42.5106   61.5240 C   0  0  0  0  0  0  0  0  0 19  0  0
   40.1867   44.1626   60.0404 C   0  0  0  0  0  0  0  0  0 20  0  0
  1  2  2  0
  2  3  1  0
  3  4  2  0
  4  5  1  0
  5  6  2  0
  6  1  1  0
  4  7  1  0
  7  8  1  0
  8  9  2  0
  9  5  1  0
 10 11  2  0
 10 12  2  0
  1 14  1  0
 10 14  1  6
 13 15  2  0
 15 16  1  0
 16 17  2  0
 17 18  1  0
 18 19  2  0
 19 13  1  0
 20 13  1  6
 20 10  1  0
M  END
>  <fitscore>  (8) 
0.375912

$$$$
sQC_Substrate__STK936575_rank_8
     RDKit          3D

 20 22  0  0  0  0  0  0  0  0999 V2000
   38.4566   43.4214   55.6578 C   0  0  0  0  0  0  0  0  0  1  0  0
   39.2203   43.4416   54.4805 C   0  0  0  0  0  0  0  0  0  2  0  0
   38.9809   44.3179   53.4483 C   0  0  0  0  0  0  0  0  0  3  0  0
   37.9435   45.2299   53.5557 C   0  0  0  0  0  0  0  0  0  4  0  0
   37.1735   45.2382   54.6962 C   0  0  0  0  0  0  0  0  0  5  0  0
   37.4429   44.3309   55.7317 C   0  0  0  0  0  0  0  0  0  6  0  0
   37.4456   46.2007   52.7620 N   0  0  0  0  0  0  0  0  0  7  0  0
   36.3997   46.8051   53.3700 C   0  0  0  0  0  0  0  0  0  8  0  0
   36.2399   46.2043   54.5625 N   0  0  0  0  0  0  0  0  0  9  0  0
   39.7514   42.8702   58.0127 S   0  0  1  0  0  6  0  0  0 10  0  0
   39.6122   41.7473   59.0420 O   0  0  0  0  0  0  0  0  0 11  0  0
   41.2242   42.8937   57.6542 O   0  0  0  0  0  0  0  0  0 12  0  0
   39.6715   44.1662   60.3096 C   0  0  0  0  0  0  0  0  0 13  0  0
   38.8006   42.4955   56.6711 N   0  0  0  0  0  0  0  0  0 14  0  0
   38.9555   43.3304   61.1092 C   0  0  0  0  0  0  0  0  0 15  0  0
   39.2733   43.1321   62.4572 C   0  0  0  0  0  0  0  0  0 16  0  0
   40.3417   43.8124   62.9599 C   0  0  0  0  0  0  0  0  0 17  0  0
   41.0896   44.6705   62.1692 C   0  0  0  0  0  0  0  0  0 18  0  0
   40.7482   44.8486   60.8257 C   0  0  0  0  0  0  0  0  0 19  0  0
   39.3060   44.3640   58.8500 C   0  0  0  0  0  0  0  0  0 20  0  0
  1  2  2  0
  2  3  1  0
  3  4  2  0
  4  5  1  0
  5  6  2  0
  6  1  1  0
  4  7  1  0
  7  8  1  0
  8  9  2  0
  9  5  1  0
 10 11  2  0
 10 12  2  0
  1 14  1  0
 10 14  1  6
 13 15  2  0
 15 16  1  0
 16 17  2  0
 17 18  1  0
 18 19  2  0
 19 13  1  0
 20 13  1  6
 20 10  1  0
M  END
>  <fitscore>  (9) 
0.34811

$$$$
sQC_Substrate__STK936575_rank_9
     RDKit          3D

 20 22  0  0  0  0  0  0  0  0999 V2000
   38.4759   43.2120   56.0874 C   0  0  0  0  0  0  0  0  0  1  0  0
   37.2117   42.7076   55.7456 C   0  0  0  0  0  0  0  0  0  2  0  0
   36.3308   43.3834   54.9345 C   0  0  0  0  0  0  0  0  0  3  0  0
   36.6884   44.6196   54.4213 C   0  0  0  0  0  0  0  0  0  4  0  0
   37.9206   45.1452   54.7360 C   0  0  0  0  0  0  0  0  0  5  0  0
   38.7970   44.4311   55.5668 C   0  0  0  0  0  0  0  0  0  6  0  0
   36.0896   45.5255   53.6205 N   0  0  0  0  0  0  0  0  0  7  0  0
   36.9056   46.5871   53.4308 C   0  0  0  0  0  0  0  0  0  8  0  0
   38.0325   46.3430   54.1231 N   0  0  0  0  0  0  0  0  0  9  0  0
   40.3742   43.0592   58.0620 S   0  0  1  0  0  6  0  0  0 10  0  0
   41.6827   42.2684   58.0150 O   0  0  0  0  0  0  0  0  0 11  0  0
   40.7649   44.4849   57.7261 O   0  0  0  0  0  0  0  0  0 12  0  0
   39.0875   44.2724   60.0202 C   0  0  0  0  0  0  0  0  0 13  0  0
   39.3177   42.4262   56.9099 N   0  0  0  0  0  0  0  0  0 14  0  0
   39.7557   45.3443   60.5253 C   0  0  0  0  0  0  0  0  0 15  0  0
   39.1198   46.5603   60.7978 C   0  0  0  0  0  0  0  0  0 16  0  0
   37.7847   46.6456   60.5387 C   0  0  0  0  0  0  0  0  0 17  0  0
   37.0778   45.5703   60.0241 C   0  0  0  0  0  0  0  0  0 18  0  0
   37.7400   44.3678   59.7618 C   0  0  0  0  0  0  0  0  0 19  0  0
   39.8008   42.9639   59.7333 C   0  0  0  0  0  0  0  0  0 20  0  0
  1  2  2  0
  2  3  1  0
  3  4  2  0
  4  5  1  0
  5  6  2  0
  6  1  1  0
  4  7  1  0
  7  8  1  0
  8  9  2  0
  9  5  1  0
 10 11  2  0
 10 12  2  0
  1 14  1  0
 10 14  1  6
 13 15  2  0
 15 16  1  0
 16 17  2  0
 17 18  1  0
 18 19  2  0
 19 13  1  0
 20 13  1  6
 20 10  1  0
M  END
>  <fitscore>  (10) 
0.344823

$$$$
sQC_Substrate__STK936575_rank_10
     RDKit          3D

 20 22  0  0  0  0  0  0  0  0999 V2000
   38.6838   43.5034   56.3550 C   0  0  0  0  0  0  0  0  0  1  0  0
   39.6643   43.4057   55.3558 C   0  0  0  0  0  0  0  0  0  2  0  0
   39.4359   43.7576   54.0463 C   0  0  0  0  0  0  0  0  0  3  0  0
   38.1880   44.2323   53.6763 C   0  0  0  0  0  0  0  0  0  4  0  0
   37.2021   44.3409   54.6301 C   0  0  0  0  0  0  0  0  0  5  0  0
   37.4664   43.9732   55.9580 C   0  0  0  0  0  0  0  0  0  6  0  0
   37.6365   44.6544   52.5196 N   0  0  0  0  0  0  0  0  0  7  0  0
   36.3503   45.0182   52.7253 C   0  0  0  0  0  0  0  0  0  8  0  0
   36.0920   44.8211   54.0303 N   0  0  0  0  0  0  0  0  0  9  0  0
   38.4380   43.9098   59.0569 S   0  0  1  0  0  6  0  0  0 10  0  0
   38.6765   45.4142   58.9175 O   0  0  0  0  0  0  0  0  0 11  0  0
   36.9337   43.7597   59.1704 O   0  0  0  0  0  0  0  0  0 12  0  0
   40.6852   43.7675   60.4324 C   0  0  0  0  0  0  0  0  0 13  0  0
   39.0280   43.1383   57.6782 N   0  0  0  0  0  0  0  0  0 14  0  0
   41.1336   45.0408   60.6009 C   0  0  0  0  0  0  0  0  0 15  0  0
   42.4855   45.3791   60.4768 C   0  0  0  0  0  0  0  0  0 16  0  0
   43.3608   44.3789   60.1764 C   0  0  0  0  0  0  0  0  0 17  0  0
   42.9330   43.0725   59.9992 C   0  0  0  0  0  0  0  0  0 18  0  0
   41.5760   42.7645   60.1294 C   0  0  0  0  0  0  0  0  0 19  0  0
   39.2130   43.4265   60.5724 C   0  0  0  0  0  0  0  0  0 20  0  0
  1  2  2  0
  2  3  1  0
  3  4  2  0
  4  5  1  0
  5  6  2  0
  6  1  1  0
  4  7  1  0
  7  8  1  0
  8  9  2  0
  9  5  1  0
 10 11  2  0
 10 12  2  0
  1 14  1  0
 10 14  1  6
 13 15  2  0
 15 16  1  0
 16 17  2  0
 17 18  1  0
 18 19  2  0
 19 13  1  0
 20 13  1  6
 20 10  1  0
M  END
>  <fitscore>  (11) 
0.335981

$$$$
sQC_Substrate__STK936575_rank_11
     RDKit          3D

 20 22  0  0  0  0  0  0  0  0999 V2000
   37.9316   43.5815   56.0496 C   0  0  0  0  0  0  0  0  0  1  0  0
   37.9589   42.9606   54.7914 C   0  0  0  0  0  0  0  0  0  2  0  0
   37.7125   43.6350   53.6187 C   0  0  0  0  0  0  0  0  0  3  0  0
   37.4223   44.9890   53.6597 C   0  0  0  0  0  0  0  0  0  4  0  0
   37.3865   45.6306   54.8766 C   0  0  0  0  0  0  0  0  0  5  0  0
   37.6421   44.9143   56.0555 C   0  0  0  0  0  0  0  0  0  6  0  0
   37.1397   45.9289   52.7338 N   0  0  0  0  0  0  0  0  0  7  0  0
   36.9318   47.1227   53.3341 C   0  0  0  0  0  0  0  0  0  8  0  0
   37.0863   46.9282   54.6558 N   0  0  0  0  0  0  0  0  0  9  0  0
   39.5234   43.0914   58.2296 S   0  0  1  0  0  6  0  0  0 10  0  0
   40.4793   41.8993   58.1613 O   0  0  0  0  0  0  0  0  0 11  0  0
   40.3433   44.2790   57.7653 O   0  0  0  0  0  0  0  0  0 12  0  0
   40.3822   43.1485   60.7238 C   0  0  0  0  0  0  0  0  0 13  0  0
   38.2236   42.8026   57.1945 N   0  0  0  0  0  0  0  0  0 14  0  0
   40.8219   41.9373   61.1601 C   0  0  0  0  0  0  0  0  0 15  0  0
   42.0075   41.7912   61.8884 C   0  0  0  0  0  0  0  0  0 16  0  0
   42.7263   42.9176   62.1555 C   0  0  0  0  0  0  0  0  0 17  0  0
   42.3032   44.1648   61.7239 C   0  0  0  0  0  0  0  0  0 18  0  0
   41.1144   44.2799   60.9981 C   0  0  0  0  0  0  0  0  0 19  0  0
   39.0922   43.2801   59.9352 C   0  0  0  0  0  0  0  0  0 20  0  0
  1  2  2  0
  2  3  1  0
  3  4  2  0
  4  5  1  0
  5  6  2  0
  6  1  1  0
  4  7  1  0
  7  8  1  0
  8  9  2  0
  9  5  1  0
 10 11  2  0
 10 12  2  0
  1 14  1  0
 10 14  1  6
 13 15  2  0
 15 16  1  0
 16 17  2  0
 17 18  1  0
 18 19  2  0
 19 13  1  0
 20 13  1  6
 20 10  1  0
M  END
>  <fitscore>  (12) 
0.331313

$$$$
sQC_Substrate__STK936575_rank_12
     RDKit          3D

 20 22  0  0  0  0  0  0  0  0999 V2000
   38.5669   44.1639   56.7668 C   0  0  0  0  0  0  0  0  0  1  0  0
   37.2834   43.6698   56.4876 C   0  0  0  0  0  0  0  0  0  2  0  0
   36.3954   44.3179   55.6616 C   0  0  0  0  0  0  0  0  0  3  0  0
   36.7654   45.5140   55.0684 C   0  0  0  0  0  0  0  0  0  4  0  0
   38.0166   46.0285   55.3202 C   0  0  0  0  0  0  0  0  0  5  0  0
   38.8997   45.3434   56.1681 C   0  0  0  0  0  0  0  0  0  6  0  0
   36.1647   46.3859   54.2321 N   0  0  0  0  0  0  0  0  0  7  0  0
   36.9977   47.4159   53.9601 C   0  0  0  0  0  0  0  0  0  8  0  0
   38.1375   47.1861   54.6360 N   0  0  0  0  0  0  0  0  0  9  0  0
   41.0644   43.6963   57.8010 S   0  0  1  0  0  6  0  0  0 10  0  0
   41.8413   42.6167   57.0457 O   0  0  0  0  0  0  0  0  0 11  0  0
   41.4730   45.0026   57.1491 O   0  0  0  0  0  0  0  0  0 12  0  0
   41.0230   42.4126   60.1059 C   0  0  0  0  0  0  0  0  0 13  0  0
   39.4136   43.4076   57.6115 N   0  0  0  0  0  0  0  0  0 14  0  0
   41.7279   41.2572   60.2435 C   0  0  0  0  0  0  0  0  0 15  0  0
   41.1762   40.1104   60.8246 C   0  0  0  0  0  0  0  0  0 16  0  0
   39.8865   40.1816   61.2588 C   0  0  0  0  0  0  0  0  0 17  0  0
   39.1440   41.3450   61.1319 C   0  0  0  0  0  0  0  0  0 18  0  0
   39.7219   42.4751   60.5470 C   0  0  0  0  0  0  0  0  0 19  0  0
   41.6448   43.6432   59.4717 C   0  0  0  0  0  0  0  0  0 20  0  0
  1  2  2  0
  2  3  1  0
  3  4  2  0
  4  5  1  0
  5  6  2  0
  6  1  1  0
  4  7  1  0
  7  8  1  0
  8  9  2  0
  9  5  1  0
 10 11  2  0
 10 12  2  0
  1 14  1  0
 10 14  1  1
 13 15  2  0
 15 16  1  0
 16 17  2  0
 17 18  1  0
 18 19  2  0
 19 13  1  0
 20 13  1  6
 20 10  1  0
M  END
>  <fitscore>  (13) 
0.323977

$$$$
sQC_Substrate__STK936575_rank_13
     RDKit          3D

 20 22  0  0  0  0  0  0  0  0999 V2000
   38.5889   43.4691   56.0238 C   0  0  0  0  0  0  0  0  0  1  0  0
   39.6595   43.9034   55.2273 C   0  0  0  0  0  0  0  0  0  2  0  0
   39.5012   44.7602   54.1635 C   0  0  0  0  0  0  0  0  0  3  0  0
   38.2357   45.2271   53.8473 C   0  0  0  0  0  0  0  0  0  4  0  0
   37.1623   44.8215   54.6068 C   0  0  0  0  0  0  0  0  0  5  0  0
   37.3566   43.9461   55.6858 C   0  0  0  0  0  0  0  0  0  6  0  0
   37.7350   46.0506   52.9032 N   0  0  0  0  0  0  0  0  0  7  0  0
   36.3960   46.1670   53.0528 C   0  0  0  0  0  0  0  0  0  8  0  0
   36.0524   45.4050   54.1063 N   0  0  0  0  0  0  0  0  0  9  0  0
   39.1489   43.1304   58.6880 S   0  0  1  0  0  6  0  0  0 10  0  0
   37.8555   43.7212   59.2517 O   0  0  0  0  0  0  0  0  0 11  0  0
   39.4810   41.9682   59.6030 O   0  0  0  0  0  0  0  0  0 12  0  0
   41.0071   44.2203   60.2115 C   0  0  0  0  0  0  0  0  0 13  0  0
   38.8618   42.6055   57.1112 N   0  0  0  0  0  0  0  0  0 14  0  0
   42.0262   43.3417   60.4118 C   0  0  0  0  0  0  0  0  0 15  0  0
   42.6230   43.1632   61.6646 C   0  0  0  0  0  0  0  0  0 16  0  0
   42.1472   43.9080   62.7017 C   0  0  0  0  0  0  0  0  0 17  0  0
   41.1101   44.8109   62.5275 C   0  0  0  0  0  0  0  0  0 18  0  0
   40.5334   44.9678   61.2642 C   0  0  0  0  0  0  0  0  0 19  0  0
   40.3765   44.3953   58.8422 C   0  0  0  0  0  0  0  0  0 20  0  0
  1  2  2  0
  2  3  1  0
  3  4  2  0
  4  5  1  0
  5  6  2  0
  6  1  1  0
  4  7  1  0
  7  8  1  0
  8  9  2  0
  9  5  1  0
 10 11  2  0
 10 12  2  0
  1 14  1  0
 10 14  1  6
 13 15  2  0
 15 16  1  0
 16 17  2  0
 17 18  1  0
 18 19  2  0
 19 13  1  0
 20 13  1  6
 20 10  1  0
M  END
>  <fitscore>  (14) 
0.319211

$$$$
sQC_Substrate__STK936575_rank_14
     RDKit          3D

 20 22  0  0  0  0  0  0  0  0999 V2000
   39.6951   43.5882   55.5198 C   0  0  0  0  0  0  0  0  0  1  0  0
   40.2038   43.0928   54.3092 C   0  0  0  0  0  0  0  0  0  2  0  0
   39.5562   43.2480   53.1062 C   0  0  0  0  0  0  0  0  0  3  0  0
   38.3457   43.9208   53.0660 C   0  0  0  0  0  0  0  0  0  4  0  0
   37.8168   44.4197   54.2343 C   0  0  0  0  0  0  0  0  0  5  0  0
   38.5018   44.2445   55.4460 C   0  0  0  0  0  0  0  0  0  6  0  0
   37.4701   44.2441   52.0918 N   0  0  0  0  0  0  0  0  0  7  0  0
   36.4238   44.9221   52.6157 C   0  0  0  0  0  0  0  0  0  8  0  0
   36.6471   45.0252   53.9378 N   0  0  0  0  0  0  0  0  0  9  0  0
   39.7786   43.1656   58.2291 S   0  0  1  0  0  6  0  0  0 10  0  0
   38.2826   42.8889   58.0700 O   0  0  0  0  0  0  0  0  0 11  0  0
   40.3387   41.9244   58.8953 O   0  0  0  0  0  0  0  0  0 12  0  0
   39.2629   44.1357   60.6281 C   0  0  0  0  0  0  0  0  0 13  0  0
   40.4518   43.3964   56.7001 N   0  0  0  0  0  0  0  0  0 14  0  0
   40.0119   43.7143   61.6826 C   0  0  0  0  0  0  0  0  0 15  0  0
   39.4384   43.3251   62.8979 C   0  0  0  0  0  0  0  0  0 16  0  0
   38.0807   43.3800   63.0007 C   0  0  0  0  0  0  0  0  0 17  0  0
   37.2921   43.8051   61.9432 C   0  0  0  0  0  0  0  0  0 18  0  0
   37.8933   44.1878   60.7410 C   0  0  0  0  0  0  0  0  0 19  0  0
   39.9097   44.5526   59.3199 C   0  0  0  0  0  0  0  0  0 20  0  0
  1  2  2  0
  2  3  1  0
  3  4  2  0
  4  5  1  0
  5  6  2  0
  6  1  1  0
  4  7  1  0
  7  8  1  0
  8  9  2  0
  9  5  1  0
 10 11  2  0
 10 12  2  0
  1 14  1  0
 10 14  1  6
 13 15  2  0
 15 16  1  0
 16 17  2  0
 17 18  1  0
 18 19  2  0
 19 13  1  0
 20 13  1  6
 20 10  1  0
M  END
>  <fitscore>  (15) 
0.291677

$$$$
sQC_Substrate__STK936575_rank_15
     RDKit          3D

 20 22  0  0  0  0  0  0  0  0999 V2000
   38.8423   43.8416   55.4753 C   0  0  0  0  0  0  0  0  0  1  0  0
   38.9541   44.2522   54.1380 C   0  0  0  0  0  0  0  0  0  2  0  0
   37.9383   44.8868   53.4627 C   0  0  0  0  0  0  0  0  0  3  0  0
   36.7423   45.1415   54.1140 C   0  0  0  0  0  0  0  0  0  4  0  0
   36.5972   44.7523   55.4260 C   0  0  0  0  0  0  0  0  0  5  0  0
   37.6525   44.1063   56.0874 C   0  0  0  0  0  0  0  0  0  6  0  0
   35.5763   45.7246   53.7666 N   0  0  0  0  0  0  0  0  0  7  0  0
   34.7205   45.7090   54.8135 C   0  0  0  0  0  0  0  0  0  8  0  0
   35.3596   45.1071   55.8323 N   0  0  0  0  0  0  0  0  0  9  0  0
   40.3370   43.3548   57.7236 S   0  0  1  0  0  6  0  0  0 10  0  0
   41.1946   42.1552   58.1299 O   0  0  0  0  0  0  0  0  0 11  0  0
   41.2084   44.5672   57.9862 O   0  0  0  0  0  0  0  0  0 12  0  0
   39.5045   43.4000   60.2270 C   0  0  0  0  0  0  0  0  0 13  0  0
   39.9558   43.2178   56.0865 N   0  0  0  0  0  0  0  0  0 14  0  0
   39.7857   42.2567   60.9085 C   0  0  0  0  0  0  0  0  0 15  0  0
   40.3014   42.2700   62.2090 C   0  0  0  0  0  0  0  0  0 16  0  0
   40.5196   43.4839   62.7884 C   0  0  0  0  0  0  0  0  0 17  0  0
   40.2426   44.6652   62.1185 C   0  0  0  0  0  0  0  0  0 18  0  0
   39.7280   44.6206   60.8199 C   0  0  0  0  0  0  0  0  0 19  0  0
   38.9455   43.3584   58.8166 C   0  0  0  0  0  0  0  0  0 20  0  0
  1  2  2  0
  2  3  1  0
  3  4  2  0
  4  5  1  0
  5  6  2  0
  6  1  1  0
  4  7  1  0
  7  8  1  0
  8  9  2  0
  9  5  1  0
 10 11  2  0
 10 12  2  0
  1 14  1  0
 10 14  1  6
 13 15  2  0
 15 16  1  0
 16 17  2  0
 17 18  1  0
 18 19  2  0
 19 13  1  0
 20 13  1  6
 20 10  1  0
M  END
>  <fitscore>  (16) 
0.276664

$$$$
sQC_Substrate__STK936575_rank_16
     RDKit          3D

 20 22  0  0  0  0  0  0  0  0999 V2000
   37.8692   43.0726   56.3624 C   0  0  0  0  0  0  0  0  0  1  0  0
   36.7541   43.5903   57.0391 C   0  0  0  0  0  0  0  0  0  2  0  0
   35.8290   44.4113   56.4383 C   0  0  0  0  0  0  0  0  0  3  0  0
   35.9869   44.7547   55.1054 C   0  0  0  0  0  0  0  0  0  4  0  0
   37.0693   44.2654   54.4107 C   0  0  0  0  0  0  0  0  0  5  0  0
   37.9960   43.4302   55.0523 C   0  0  0  0  0  0  0  0  0  6  0  0
   35.2934   45.5126   54.2307 N   0  0  0  0  0  0  0  0  0  7  0  0
   35.9073   45.5082   53.0257 C   0  0  0  0  0  0  0  0  0  8  0  0
   37.0017   44.7361   53.1471 N   0  0  0  0  0  0  0  0  0  9  0  0
   40.0302   42.7540   58.0220 S   0  0  1  0  0  6  0  0  0 10  0  0
   40.5891   41.5660   58.8069 O   0  0  0  0  0  0  0  0  0 11  0  0
   41.1863   43.2407   57.1706 O   0  0  0  0  0  0  0  0  0 12  0  0
   40.8822   44.3295   59.9596 C   0  0  0  0  0  0  0  0  0 13  0  0
   38.7494   42.2163   57.0657 N   0  0  0  0  0  0  0  0  0 14  0  0
   41.2316   43.6910   61.1089 C   0  0  0  0  0  0  0  0  0 15  0  0
   42.4064   43.9954   61.8049 C   0  0  0  0  0  0  0  0  0 16  0  0
   43.2095   44.9690   61.2911 C   0  0  0  0  0  0  0  0  0 17  0  0
   42.8793   45.6365   60.1221 C   0  0  0  0  0  0  0  0  0 18  0  0
   41.6990   45.3108   59.4484 C   0  0  0  0  0  0  0  0  0 19  0  0
   39.6018   43.9805   59.2233 C   0  0  0  0  0  0  0  0  0 20  0  0
  1  2  2  0
  2  3  1  0
  3  4  2  0
  4  5  1  0
  5  6  2  0
  6  1  1  0
  4  7  1  0
  7  8  1  0
  8  9  2  0
  9  5  1  0
 10 11  2  0
 10 12  2  0
  1 14  1  0
 10 14  1  6
 13 15  2  0
 15 16  1  0
 16 17  2  0
 17 18  1  0
 18 19  2  0
 19 13  1  0
 20 13  1  6
 20 10  1  0
M  END
>  <fitscore>  (17) 
0.263931

$$$$
sQC_Substrate__STK936575_rank_17
     RDKit          3D

 20 22  0  0  0  0  0  0  0  0999 V2000
   38.5602   43.7261   55.3054 C   0  0  0  0  0  0  0  0  0  1  0  0
   38.4194   43.4704   53.9328 C   0  0  0  0  0  0  0  0  0  2  0  0
   37.7480   44.3142   53.0795 C   0  0  0  0  0  0  0  0  0  3  0  0
   37.1776   45.4743   53.5778 C   0  0  0  0  0  0  0  0  0  4  0  0
   37.2956   45.7568   54.9194 C   0  0  0  0  0  0  0  0  0  5  0  0
   37.9866   44.8754   55.7643 C   0  0  0  0  0  0  0  0  0  6  0  0
   36.4723   46.4923   53.0426 N   0  0  0  0  0  0  0  0  0  7  0  0
   36.1522   47.3893   54.0027 C   0  0  0  0  0  0  0  0  0  8  0  0
   36.6646   46.9265   55.1568 N   0  0  0  0  0  0  0  0  0  9  0  0
   40.1603   43.2244   57.4766 S   0  0  1  0  0  6  0  0  0 10  0  0
   40.8152   41.9644   58.0450 O   0  0  0  0  0  0  0  0  0 11  0  0
   41.3138   44.1498   57.1427 O   0  0  0  0  0  0  0  0  0 12  0  0
   40.0304   43.8016   60.0479 C   0  0  0  0  0  0  0  0  0 13  0  0
   39.2914   42.8056   56.0932 N   0  0  0  0  0  0  0  0  0 14  0  0
   40.9419   44.7577   60.3731 C   0  0  0  0  0  0  0  0  0 15  0  0
   41.7268   44.6791   61.5285 C   0  0  0  0  0  0  0  0  0 16  0  0
   41.5513   43.5968   62.3377 C   0  0  0  0  0  0  0  0  0 17  0  0
   40.6303   42.6072   62.0320 C   0  0  0  0  0  0  0  0  0 18  0  0
   39.8601   42.7128   60.8707 C   0  0  0  0  0  0  0  0  0 19  0  0
   39.1909   43.9104   58.7883 C   0  0  0  0  0  0  0  0  0 20  0  0
  1  2  2  0
  2  3  1  0
  3  4  2  0
  4  5  1  0
  5  6  2  0
  6  1  1  0
  4  7  1  0
  7  8  1  0
  8  9  2  0
  9  5  1  0
 10 11  2  0
 10 12  2  0
  1 14  1  0
 10 14  1  6
 13 15  2  0
 15 16  1  0
 16 17  2  0
 17 18  1  0
 18 19  2  0
 19 13  1  0
 20 13  1  6
 20 10  1  0
M  END
>  <fitscore>  (18) 
0.263728

$$$$
sQC_Substrate__STK936575_rank_18
     RDKit          3D

 20 22  0  0  0  0  0  0  0  0999 V2000
   38.6473   43.8793   56.5898 C   0  0  0  0  0  0  0  0  0  1  0  0
   39.2370   43.6595   55.3355 C   0  0  0  0  0  0  0  0  0  2  0  0
   38.7243   44.1727   54.1674 C   0  0  0  0  0  0  0  0  0  3  0  0
   37.5744   44.9443   54.2092 C   0  0  0  0  0  0  0  0  0  4  0  0
   36.9690   45.1801   55.4223 C   0  0  0  0  0  0  0  0  0  5  0  0
   37.5165   44.6419   56.5965 C   0  0  0  0  0  0  0  0  0  6  0  0
   36.8245   45.5832   53.2873 N   0  0  0  0  0  0  0  0  0  7  0  0
   35.7821   46.2024   53.8864 C   0  0  0  0  0  0  0  0  0  8  0  0
   35.8801   45.9477   55.2032 N   0  0  0  0  0  0  0  0  0  9  0  0
   38.4861   43.0781   59.2086 S   0  0  1  0  0  6  0  0  0 10  0  0
   36.9796   43.2387   58.9980 O   0  0  0  0  0  0  0  0  0 11  0  0
   38.6648   41.6528   59.6932 O   0  0  0  0  0  0  0  0  0 12  0  0
   40.4434   44.3083   60.4805 C   0  0  0  0  0  0  0  0  0 13  0  0
   39.2679   43.3263   57.7351 N   0  0  0  0  0  0  0  0  0 14  0  0
   41.2168   43.2590   60.8693 C   0  0  0  0  0  0  0  0  0 15  0  0
   42.6145   43.3210   60.8693 C   0  0  0  0  0  0  0  0  0 16  0  0
   43.1941   44.4847   60.4609 C   0  0  0  0  0  0  0  0  0 17  0  0
   42.4317   45.5702   60.0592 C   0  0  0  0  0  0  0  0  0 18  0  0
   41.0371   45.4789   60.0698 C   0  0  0  0  0  0  0  0  0 19  0  0
   38.9285   44.2156   60.4897 C   0  0  0  0  0  0  0  0  0 20  0  0
  1  2  2  0
  2  3  1  0
  3  4  2  0
  4  5  1  0
  5  6  2  0
  6  1  1  0
  4  7  1  0
  7  8  1  0
  8  9  2  0
  9  5  1  0
 10 11  2  0
 10 12  2  0
  1 14  1  0
 10 14  1  6
 13 15  2  0
 15 16  1  0
 16 17  2  0
 17 18  1  0
 18 19  2  0
 19 13  1  0
 20 13  1  6
 20 10  1  0
M  END
>  <fitscore>  (19) 
0.251639

$$$$
sQC_Substrate__STK936575_rank_19
     RDKit          3D

 20 22  0  0  0  0  0  0  0  0999 V2000
   38.0677   43.8199   56.1963 C   0  0  0  0  0  0  0  0  0  1  0  0
   39.3240   44.3235   55.8253 C   0  0  0  0  0  0  0  0  0  2  0  0
   39.5648   44.9083   54.6043 C   0  0  0  0  0  0  0  0  0  3  0  0
   38.5339   45.0149   53.6849 C   0  0  0  0  0  0  0  0  0  4  0  0
   37.2886   44.5312   54.0148 C   0  0  0  0  0  0  0  0  0  5  0  0
   37.0749   43.9394   55.2687 C   0  0  0  0  0  0  0  0  0  6  0  0
   38.4217   45.5144   52.4366 N   0  0  0  0  0  0  0  0  0  7  0  0
   37.1562   45.3567   51.9866 C   0  0  0  0  0  0  0  0  0  8  0  0
   36.4651   44.7493   52.9674 N   0  0  0  0  0  0  0  0  0  9  0  0
   39.2030   42.9169   58.5247 S   0  0  1  0  0  6  0  0  0 10  0  0
   38.9142   41.5992   59.2458 O   0  0  0  0  0  0  0  0  0 11  0  0
   40.4838   42.6691   57.7524 O   0  0  0  0  0  0  0  0  0 12  0  0
   40.3662   43.4586   60.8302 C   0  0  0  0  0  0  0  0  0 13  0  0
   37.9185   43.2585   57.4867 N   0  0  0  0  0  0  0  0  0 14  0  0
   39.8339   42.7676   61.8741 C   0  0  0  0  0  0  0  0  0 15  0  0
   40.6301   42.1488   62.8439 C   0  0  0  0  0  0  0  0  0 16  0  0
   41.9821   42.2583   62.7134 C   0  0  0  0  0  0  0  0  0 17  0  0
   42.5528   42.9559   61.6605 C   0  0  0  0  0  0  0  0  0 18  0  0
   41.7319   43.5638   60.7067 C   0  0  0  0  0  0  0  0  0 19  0  0
   39.4803   44.1210   59.7912 C   0  0  0  0  0  0  0  0  0 20  0  0
  1  2  2  0
  2  3  1  0
  3  4  2  0
  4  5  1  0
  5  6  2  0
  6  1  1  0
  4  7  1  0
  7  8  1  0
  8  9  2  0
  9  5  1  0
 10 11  2  0
 10 12  2  0
  1 14  1  0
 10 14  1  6
 13 15  2  0
 15 16  1  0
 16 17  2  0
 17 18  1  0
 18 19  2  0
 19 13  1  0
 20 13  1  6
 20 10  1  0
M  END
>  <fitscore>  (20) 
0.240494

$$$$
sQC_Substrate__STK936575_rank_20
     RDKit          3D

 20 22  0  0  0  0  0  0  0  0999 V2000
   38.4246   43.9195   56.6937 C   0  0  0  0  0  0  0  0  0  1  0  0
   37.8812   42.8190   56.0134 C   0  0  0  0  0  0  0  0  0  2  0  0
   37.5392   42.8567   54.6821 C   0  0  0  0  0  0  0  0  0  3  0  0
   37.7319   44.0246   53.9621 C   0  0  0  0  0  0  0  0  0  4  0  0
   38.2625   45.1240   54.5973 C   0  0  0  0  0  0  0  0  0  5  0  0
   38.6009   45.0538   55.9570 C   0  0  0  0  0  0  0  0  0  6  0  0
   37.5157   44.4000   52.6843 N   0  0  0  0  0  0  0  0  0  7  0  0
   37.8926   45.6869   52.5094 C   0  0  0  0  0  0  0  0  0  8  0  0
   38.3519   46.1246   53.6952 N   0  0  0  0  0  0  0  0  0  9  0  0
   40.3179   43.4138   58.6135 S   0  0  1  0  0  6  0  0  0 10  0  0
   40.8443   42.1963   57.8515 O   0  0  0  0  0  0  0  0  0 11  0  0
   41.2887   44.5313   58.2864 O   0  0  0  0  0  0  0  0  0 12  0  0
   40.0743   44.2646   61.0992 C   0  0  0  0  0  0  0  0  0 13  0  0
   38.7655   43.7695   58.0589 N   0  0  0  0  0  0  0  0  0 14  0  0
   41.0278   45.1810   61.4180 C   0  0  0  0  0  0  0  0  0 15  0  0
   40.7320   46.3515   62.1250 C   0  0  0  0  0  0  0  0  0 16  0  0
   39.4361   46.5547   62.4942 C   0  0  0  0  0  0  0  0  0 17  0  0
   38.4435   45.6387   62.1833 C   0  0  0  0  0  0  0  0  0 18  0  0
   38.7690   44.4781   61.4760 C   0  0  0  0  0  0  0  0  0 19  0  0
   40.4214   43.0023   60.3313 C   0  0  0  0  0  0  0  0  0 20  0  0
  1  2  2  0
  2  3  1  0
  3  4  2  0
  4  5  1  0
  5  6  2  0
  6  1  1  0
  4  7  1  0
  7  8  1  0
  8  9  2  0
  9  5  1  0
 10 11  2  0
 10 12  2  0
  1 14  1  0
 10 14  1  6
 13 15  2  0
 15 16  1  0
 16 17  2  0
 17 18  1  0
 18 19  2  0
 19 13  1  0
 20 13  1  6
 20 10  1  0
M  END
>  <fitscore>  (21) 
0.235308

$$$$
sQC_Substrate__STK936575_rank_21
     RDKit          3D

 20 22  0  0  0  0  0  0  0  0999 V2000
   40.0490   43.9781   55.8113 C   0  0  0  0  0  0  0  0  0  1  0  0
   39.4420   43.0459   54.9558 C   0  0  0  0  0  0  0  0  0  2  0  0
   38.4206   43.3738   54.0957 C   0  0  0  0  0  0  0  0  0  3  0  0
   37.9552   44.6782   54.0567 C   0  0  0  0  0  0  0  0  0  4  0  0
   38.5269   45.6190   54.8824 C   0  0  0  0  0  0  0  0  0  5  0  0
   39.5674   45.2527   55.7493 C   0  0  0  0  0  0  0  0  0  6  0  0
   37.0008   45.3262   53.3570 N   0  0  0  0  0  0  0  0  0  7  0  0
   36.9637   46.6283   53.7203 C   0  0  0  0  0  0  0  0  0  8  0  0
   37.9089   46.7989   54.6617 N   0  0  0  0  0  0  0  0  0  9  0  0
   40.9643   43.2731   58.2995 S   0  0  1  0  0  6  0  0  0 10  0  0
   40.4382   41.8539   58.5207 O   0  0  0  0  0  0  0  0  0 11  0  0
   42.3176   43.3008   58.9823 O   0  0  0  0  0  0  0  0  0 12  0  0
   39.8206   43.9135   60.5894 C   0  0  0  0  0  0  0  0  0 13  0  0
   41.1097   43.5439   56.6412 N   0  0  0  0  0  0  0  0  0 14  0  0
   38.8469   43.0917   61.0661 C   0  0  0  0  0  0  0  0  0 15  0  0
   38.8092   42.6743   62.4009 C   0  0  0  0  0  0  0  0  0 16  0  0
   39.7942   43.1217   63.2296 C   0  0  0  0  0  0  0  0  0 17  0  0
   40.7989   43.9596   62.7721 C   0  0  0  0  0  0  0  0  0 18  0  0
   40.8107   44.3599   61.4331 C   0  0  0  0  0  0  0  0  0 19  0  0
   39.8390   44.3518   59.1365 C   0  0  0  0  0  0  0  0  0 20  0  0
  1  2  2  0
  2  3  1  0
  3  4  2  0
  4  5  1  0
  5  6  2  0
  6  1  1  0
  4  7  1  0
  7  8  1  0
  8  9  2  0
  9  5  1  0
 10 11  2  0
 10 12  2  0
  1 14  1  0
 10 14  1  6
 13 15  2  0
 15 16  1  0
 16 17  2  0
 17 18  1  0
 18 19  2  0
 19 13  1  0
 20 13  1  6
 20 10  1  0
M  END
>  <fitscore>  (22) 
0.232392

$$$$
sQC_Substrate__STK936575_rank_22
     RDKit          3D

 20 22  0  0  0  0  0  0  0  0999 V2000
   38.4011   43.0544   56.2967 C   0  0  0  0  0  0  0  0  0  1  0  0
   37.0105   42.8754   56.3576 C   0  0  0  0  0  0  0  0  0  2  0  0
   36.1496   43.3746   55.4088 C   0  0  0  0  0  0  0  0  0  3  0  0
   36.6580   44.0895   54.3364 C   0  0  0  0  0  0  0  0  0  4  0  0
   38.0171   44.2848   54.2448 C   0  0  0  0  0  0  0  0  0  5  0  0
   38.8693   43.7630   55.2295 C   0  0  0  0  0  0  0  0  0  6  0  0
   36.1197   44.6998   53.2603 N   0  0  0  0  0  0  0  0  0  7  0  0
   37.0947   45.2626   52.5110 C   0  0  0  0  0  0  0  0  0  8  0  0
   38.2614   45.0010   53.1266 N   0  0  0  0  0  0  0  0  0  9  0  0
   40.0883   43.3695   58.4368 S   0  0  1  0  0  6  0  0  0 10  0  0
   41.5677   43.3125   58.0523 O   0  0  0  0  0  0  0  0  0 11  0  0
   39.7254   44.8405   58.3835 O   0  0  0  0  0  0  0  0  0 12  0  0
   40.8919   43.6732   60.9316 C   0  0  0  0  0  0  0  0  0 13  0  0
   39.2020   42.4792   57.3117 N   0  0  0  0  0  0  0  0  0 14  0  0
   42.2255   43.4261   61.0370 C   0  0  0  0  0  0  0  0  0 15  0  0
   43.0774   44.2360   61.7958 C   0  0  0  0  0  0  0  0  0 16  0  0
   42.5253   45.3019   62.4407 C   0  0  0  0  0  0  0  0  0 17  0  0
   41.1701   45.5782   62.3517 C   0  0  0  0  0  0  0  0  0 18  0  0
   40.3435   44.7513   61.5861 C   0  0  0  0  0  0  0  0  0 19  0  0
   39.9889   42.7790   60.1018 C   0  0  0  0  0  0  0  0  0 20  0  0
  1  2  2  0
  2  3  1  0
  3  4  2  0
  4  5  1  0
  5  6  2  0
  6  1  1  0
  4  7  1  0
  7  8  1  0
  8  9  2  0
  9  5  1  0
 10 11  2  0
 10 12  2  0
  1 14  1  0
 10 14  1  6
 13 15  2  0
 15 16  1  0
 16 17  2  0
 17 18  1  0
 18 19  2  0
 19 13  1  0
 20 13  1  6
 20 10  1  0
M  END
>  <fitscore>  (23) 
0.23212

$$$$
sQC_Substrate__STK936575_rank_23
     RDKit          3D

 20 22  0  0  0  0  0  0  0  0999 V2000
   38.2317   43.8972   56.2554 C   0  0  0  0  0  0  0  0  0  1  0  0
   39.3244   44.7356   55.9863 C   0  0  0  0  0  0  0  0  0  2  0  0
   39.5589   45.2849   54.7478 C   0  0  0  0  0  0  0  0  0  3  0  0
   38.6889   45.0105   53.7051 C   0  0  0  0  0  0  0  0  0  4  0  0
   37.6066   44.1917   53.9328 C   0  0  0  0  0  0  0  0  0  5  0  0
   37.3950   43.6462   55.2079 C   0  0  0  0  0  0  0  0  0  6  0  0
   38.6190   45.3690   52.4063 N   0  0  0  0  0  0  0  0  0  7  0  0
   37.5362   44.8026   51.8270 C   0  0  0  0  0  0  0  0  0  8  0  0
   36.9183   44.0784   52.7768 N   0  0  0  0  0  0  0  0  0  9  0  0
   39.3420   43.0494   58.6164 S   0  0  1  0  0  6  0  0  0 10  0  0
   38.8854   41.9712   59.6007 O   0  0  0  0  0  0  0  0  0 11  0  0
   40.5092   42.4321   57.8717 O   0  0  0  0  0  0  0  0  0 12  0  0
   40.5348   43.8130   60.8427 C   0  0  0  0  0  0  0  0  0 13  0  0
   38.0667   43.4027   57.5710 N   0  0  0  0  0  0  0  0  0 14  0  0
   39.8217   43.6475   61.9893 C   0  0  0  0  0  0  0  0  0 15  0  0
   40.3850   43.0995   63.1467 C   0  0  0  0  0  0  0  0  0 16  0  0
   41.6949   42.7275   63.0952 C   0  0  0  0  0  0  0  0  0 17  0  0
   42.4463   42.8840   61.9411 C   0  0  0  0  0  0  0  0  0 18  0  0
   41.8564   43.4346   60.8001 C   0  0  0  0  0  0  0  0  0 19  0  0
   39.9001   44.4102   59.6002 C   0  0  0  0  0  0  0  0  0 20  0  0
  1  2  2  0
  2  3  1  0
  3  4  2  0
  4  5  1  0
  5  6  2  0
  6  1  1  0
  4  7  1  0
  7  8  1  0
  8  9  2  0
  9  5  1  0
 10 11  2  0
 10 12  2  0
  1 14  1  0
 10 14  1  6
 13 15  2  0
 15 16  1  0
 16 17  2  0
 17 18  1  0
 18 19  2  0
 19 13  1  0
 20 13  1  6
 20 10  1  0
M  END
>  <fitscore>  (24) 
0.215951

$$$$
sQC_Substrate__STK936575_rank_24
     RDKit          3D

 20 22  0  0  0  0  0  0  0  0999 V2000
   37.7428   43.2948   55.8869 C   0  0  0  0  0  0  0  0  0  1  0  0
   36.4346   43.7568   55.6757 C   0  0  0  0  0  0  0  0  0  2  0  0
   36.1003   44.6170   54.6564 C   0  0  0  0  0  0  0  0  0  3  0  0
   37.0849   45.0593   53.7878 C   0  0  0  0  0  0  0  0  0  4  0  0
   38.3792   44.6270   53.9653 C   0  0  0  0  0  0  0  0  0  5  0  0
   38.6884   43.7494   55.0154 C   0  0  0  0  0  0  0  0  0  6  0  0
   37.1085   45.8779   52.7155 N   0  0  0  0  0  0  0  0  0  7  0  0
   38.3666   45.9655   52.2272 C   0  0  0  0  0  0  0  0  0  8  0  0
   39.1429   45.1903   53.0050 N   0  0  0  0  0  0  0  0  0  9  0  0
   39.1721   42.5994   58.1229 S   0  0  1  0  0  6  0  0  0 10  0  0
   38.7019   41.9465   59.4238 O   0  0  0  0  0  0  0  0  0 11  0  0
   40.4429   41.8616   57.7504 O   0  0  0  0  0  0  0  0  0 12  0  0
   40.4903   44.2478   59.7063 C   0  0  0  0  0  0  0  0  0 13  0  0
   37.9775   42.3916   56.9507 N   0  0  0  0  0  0  0  0  0 14  0  0
   41.8196   44.0118   59.5386 C   0  0  0  0  0  0  0  0  0 15  0  0
   42.7131   43.9745   60.6145 C   0  0  0  0  0  0  0  0  0 16  0  0
   42.2070   44.1852   61.8620 C   0  0  0  0  0  0  0  0  0 17  0  0
   40.8574   44.4280   62.0634 C   0  0  0  0  0  0  0  0  0 18  0  0
   39.9885   44.4594   60.9691 C   0  0  0  0  0  0  0  0  0 19  0  0
   39.5417   44.2831   58.5221 C   0  0  0  0  0  0  0  0  0 20  0  0
  1  2  2  0
  2  3  1  0
  3  4  2  0
  4  5  1  0
  5  6  2  0
  6  1  1  0
  4  7  1  0
  7  8  1  0
  8  9  2  0
  9  5  1  0
 10 11  2  0
 10 12  2  0
  1 14  1  0
 10 14  1  6
 13 15  2  0
 15 16  1  0
 16 17  2  0
 17 18  1  0
 18 19  2  0
 19 13  1  0
 20 13  1  6
 20 10  1  0
M  END
>  <fitscore>  (25) 
0.21485

$$$$
sQC_Substrate__STK936575_rank_25
     RDKit          3D

 20 22  0  0  0  0  0  0  0  0999 V2000
   39.6562   45.2111   56.3180 C   0  0  0  0  0  0  0  0  0  1  0  0
   38.5364   45.9942   56.6376 C   0  0  0  0  0  0  0  0  0  2  0  0
   37.5351   46.2710   55.7367 C   0  0  0  0  0  0  0  0  0  3  0  0
   37.6168   45.7632   54.4503 C   0  0  0  0  0  0  0  0  0  4  0  0
   38.7013   44.9913   54.1017 C   0  0  0  0  0  0  0  0  0  5  0  0
   39.7068   44.7272   55.0438 C   0  0  0  0  0  0  0  0  0  6  0  0
   36.8399   45.8342   53.3494 N   0  0  0  0  0  0  0  0  0  7  0  0
   37.4046   45.1362   52.3381 C   0  0  0  0  0  0  0  0  0  8  0  0
   38.5524   44.6201   52.8122 N   0  0  0  0  0  0  0  0  0  9  0  0
   40.9881   43.4341   57.9287 S   0  0  1  0  0  6  0  0  0 10  0  0
   41.5806   42.5909   56.7984 O   0  0  0  0  0  0  0  0  0 11  0  0
   42.0790   43.5047   58.9790 O   0  0  0  0  0  0  0  0  0 12  0  0
   39.1839   43.2026   59.8400 C   0  0  0  0  0  0  0  0  0 13  0  0
   40.6191   44.9651   57.3254 N   0  0  0  0  0  0  0  0  0 14  0  0
   39.7703   42.8886   61.0267 C   0  0  0  0  0  0  0  0  0 15  0  0
   39.3995   43.5016   62.2284 C   0  0  0  0  0  0  0  0  0 16  0  0
   38.4144   44.4418   62.1789 C   0  0  0  0  0  0  0  0  0 17  0  0
   37.7989   44.7821   60.9846 C   0  0  0  0  0  0  0  0  0 18  0  0
   38.1904   44.1528   59.7998 C   0  0  0  0  0  0  0  0  0 19  0  0
   39.6045   42.5228   58.5500 C   0  0  0  0  0  0  0  0  0 20  0  0
  1  2  2  0
  2  3  1  0
  3  4  2  0
  4  5  1  0
  5  6  2  0
  6  1  1  0
  4  7  1  0
  7  8  1  0
  8  9  2  0
  9  5  1  0
 10 11  2  0
 10 12  2  0
  1 14  1  0
 10 14  1  6
 13 15  2  0
 15 16  1  0
 16 17  2  0
 17 18  1  0
 18 19  2  0
 19 13  1  0
 20 13  1  6
 20 10  1  0
M  END
>  <fitscore>  (26) 
0.205246

$$$$
sQC_Substrate__STK936575_rank_26
     RDKit          3D

 20 22  0  0  0  0  0  0  0  0999 V2000
   38.7721   44.0392   55.8655 C   0  0  0  0  0  0  0  0  0  1  0  0
   39.5951   45.1295   55.5439 C   0  0  0  0  0  0  0  0  0  2  0  0
   39.2836   46.0372   54.5591 C   0  0  0  0  0  0  0  0  0  3  0  0
   38.1088   45.8863   53.8404 C   0  0  0  0  0  0  0  0  0  4  0  0
   37.2777   44.8280   54.1286 C   0  0  0  0  0  0  0  0  0  5  0  0
   37.6239   43.9185   55.1392 C   0  0  0  0  0  0  0  0  0  6  0  0
   37.5122   46.5679   52.8405 N   0  0  0  0  0  0  0  0  0  7  0  0
   36.3471   45.9700   52.5030 C   0  0  0  0  0  0  0  0  0  8  0  0
   36.2115   44.8977   53.3033 N   0  0  0  0  0  0  0  0  0  9  0  0
   40.6030   43.3494   57.7885 S   0  0  1  0  0  6  0  0  0 10  0  0
   41.7735   42.9096   56.9075 O   0  0  0  0  0  0  0  0  0 11  0  0
   40.8787   44.8051   58.1096 O   0  0  0  0  0  0  0  0  0 12  0  0
   40.2262   43.2589   60.3984 C   0  0  0  0  0  0  0  0  0 13  0  0
   39.1719   43.1760   56.9131 N   0  0  0  0  0  0  0  0  0 14  0  0
   41.0905   44.0639   61.0734 C   0  0  0  0  0  0  0  0  0 15  0  0
   40.6765   44.8887   62.1250 C   0  0  0  0  0  0  0  0  0 16  0  0
   39.3567   44.8646   62.4633 C   0  0  0  0  0  0  0  0  0 17  0  0
   38.4532   44.0546   61.7935 C   0  0  0  0  0  0  0  0  0 18  0  0
   38.8960   43.2412   60.7469 C   0  0  0  0  0  0  0  0  0 19  0  0
   40.7007   42.3732   59.2610 C   0  0  0  0  0  0  0  0  0 20  0  0
  1  2  2  0
  2  3  1  0
  3  4  2  0
  4  5  1  0
  5  6  2  0
  6  1  1  0
  4  7  1  0
  7  8  1  0
  8  9  2  0
  9  5  1  0
 10 11  2  0
 10 12  2  0
  1 14  1  0
 10 14  1  6
 13 15  2  0
 15 16  1  0
 16 17  2  0
 17 18  1  0
 18 19  2  0
 19 13  1  0
 20 13  1  6
 20 10  1  0
M  END
>  <fitscore>  (27) 
0.195677

$$$$
sQC_Substrate__STK936575_rank_27
     RDKit          3D

 20 22  0  0  0  0  0  0  0  0999 V2000
   38.2308   43.7187   56.6936 C   0  0  0  0  0  0  0  0  0  1  0  0
   36.9520   43.1431   56.6414 C   0  0  0  0  0  0  0  0  0  2  0  0
   36.2435   42.9991   55.4719 C   0  0  0  0  0  0  0  0  0  3  0  0
   36.7995   43.4356   54.2804 C   0  0  0  0  0  0  0  0  0  4  0  0
   38.0520   44.0056   54.2941 C   0  0  0  0  0  0  0  0  0  5  0  0
   38.7494   44.1388   55.5041 C   0  0  0  0  0  0  0  0  0  6  0  0
   36.3973   43.4492   52.9926 N   0  0  0  0  0  0  0  0  0  7  0  0
   37.3535   44.0052   52.2144 C   0  0  0  0  0  0  0  0  0  8  0  0
   38.3701   44.3451   53.0266 N   0  0  0  0  0  0  0  0  0  9  0  0
   40.5321   44.1128   58.1340 S   0  0  1  0  0  6  0  0  0 10  0  0
   41.2836   42.7815   58.1828 O   0  0  0  0  0  0  0  0  0 11  0  0
   41.0957   44.8377   56.9276 O   0  0  0  0  0  0  0  0  0 12  0  0
   40.1999   44.3042   60.7446 C   0  0  0  0  0  0  0  0  0 13  0  0
   38.8860   43.7984   57.9454 N   0  0  0  0  0  0  0  0  0 14  0  0
   38.9409   44.6976   61.0773 C   0  0  0  0  0  0  0  0  0 15  0  0
   38.2186   44.0935   62.1121 C   0  0  0  0  0  0  0  0  0 16  0  0
   38.8216   43.0789   62.7932 C   0  0  0  0  0  0  0  0  0 17  0  0
   40.1032   42.6568   62.4765 C   0  0  0  0  0  0  0  0  0 18  0  0
   40.8004   43.2793   61.4375 C   0  0  0  0  0  0  0  0  0 19  0  0
   40.9624   44.9761   59.6174 C   0  0  0  0  0  0  0  0  0 20  0  0
  1  2  2  0
  2  3  1  0
  3  4  2  0
  4  5  1  0
  5  6  2  0
  6  1  1  0
  4  7  1  0
  7  8  1  0
  8  9  2  0
  9  5  1  0
 10 11  2  0
 10 12  2  0
  1 14  1  0
 10 14  1  6
 13 15  2  0
 15 16  1  0
 16 17  2  0
 17 18  1  0
 18 19  2  0
 19 13  1  0
 20 13  1  6
 20 10  1  0
M  END
>  <fitscore>  (28) 
0.189685

$$$$
sQC_Substrate__STK936575_rank_28
     RDKit          3D

 20 22  0  0  0  0  0  0  0  0999 V2000
   38.4471   43.5696   55.7443 C   0  0  0  0  0  0  0  0  0  1  0  0
   37.6296   43.0085   54.7511 C   0  0  0  0  0  0  0  0  0  2  0  0
   37.3222   43.6590   53.5793 C   0  0  0  0  0  0  0  0  0  3  0  0
   37.8327   44.9264   53.3497 C   0  0  0  0  0  0  0  0  0  4  0  0
   38.6378   45.5077   54.3023 C   0  0  0  0  0  0  0  0  0  5  0  0
   38.9326   44.8181   55.4880 C   0  0  0  0  0  0  0  0  0  6  0  0
   37.7380   45.8212   52.3444 N   0  0  0  0  0  0  0  0  0  7  0  0
   38.4534   46.9296   52.6419 C   0  0  0  0  0  0  0  0  0  8  0  0
   39.0046   46.7264   53.8516 N   0  0  0  0  0  0  0  0  0  9  0  0
   38.6341   43.4099   58.4766 S   0  0  1  0  0  6  0  0  0 10  0  0
   37.3484   44.2264   58.6176 O   0  0  0  0  0  0  0  0  0 11  0  0
   38.5005   42.2893   59.4889 O   0  0  0  0  0  0  0  0  0 12  0  0
   40.7722   43.7533   59.9840 C   0  0  0  0  0  0  0  0  0 13  0  0
   38.7224   42.8069   56.9040 N   0  0  0  0  0  0  0  0  0 14  0  0
   40.1804   43.1928   61.0732 C   0  0  0  0  0  0  0  0  0 15  0  0
   40.9107   42.5086   62.0508 C   0  0  0  0  0  0  0  0  0 16  0  0
   42.2596   42.4159   61.8807 C   0  0  0  0  0  0  0  0  0 17  0  0
   42.8900   42.9770   60.7812 C   0  0  0  0  0  0  0  0  0 18  0  0
   42.1342   43.6547   59.8207 C   0  0  0  0  0  0  0  0  0 19  0  0
   39.9572   44.4906   58.9374 C   0  0  0  0  0  0  0  0  0 20  0  0
  1  2  2  0
  2  3  1  0
  3  4  2  0
  4  5  1  0
  5  6  2  0
  6  1  1  0
  4  7  1  0
  7  8  1  0
  8  9  2  0
  9  5  1  0
 10 11  2  0
 10 12  2  0
  1 14  1  0
 10 14  1  6
 13 15  2  0
 15 16  1  0
 16 17  2  0
 17 18  1  0
 18 19  2  0
 19 13  1  0
 20 13  1  6
 20 10  1  0
M  END
>  <fitscore>  (29) 
0.18275

$$$$
sQC_Substrate__STK936575_rank_29
     RDKit          3D

 20 22  0  0  0  0  0  0  0  0999 V2000
   37.4647   43.5030   56.5858 C   0  0  0  0  0  0  0  0  0  1  0  0
   36.3120   43.1266   55.8795 C   0  0  0  0  0  0  0  0  0  2  0  0
   35.9603   43.6810   54.6713 C   0  0  0  0  0  0  0  0  0  3  0  0
   36.7672   44.6568   54.1090 C   0  0  0  0  0  0  0  0  0  4  0  0
   37.9055   45.0509   54.7742 C   0  0  0  0  0  0  0  0  0  5  0  0
   38.2368   44.4663   56.0058 C   0  0  0  0  0  0  0  0  0  6  0  0
   36.7246   45.3885   52.9762 N   0  0  0  0  0  0  0  0  0  7  0  0
   37.7922   46.2167   52.9193 C   0  0  0  0  0  0  0  0  0  8  0  0
   38.5145   46.0008   54.0330 N   0  0  0  0  0  0  0  0  0  9  0  0
   39.0872   43.2008   58.7772 S   0  0  1  0  0  6  0  0  0 10  0  0
   39.0377   44.6780   59.1711 O   0  0  0  0  0  0  0  0  0 11  0  0
   39.0298   42.4427   60.0888 O   0  0  0  0  0  0  0  0  0 12  0  0
   41.7089   43.1603   59.0722 C   0  0  0  0  0  0  0  0  0 13  0  0
   37.7497   42.8535   57.8103 N   0  0  0  0  0  0  0  0  0 14  0  0
   42.0779   42.1501   59.9053 C   0  0  0  0  0  0  0  0  0 15  0  0
   43.0453   42.3193   60.9017 C   0  0  0  0  0  0  0  0  0 16  0  0
   43.6212   43.5487   61.0191 C   0  0  0  0  0  0  0  0  0 17  0  0
   43.2653   44.5966   60.1847 C   0  0  0  0  0  0  0  0  0 18  0  0
   42.2955   44.3978   59.1982 C   0  0  0  0  0  0  0  0  0 19  0  0
   40.6565   42.9508   57.9990 C   0  0  0  0  0  0  0  0  0 20  0  0
  1  2  2  0
  2  3  1  0
  3  4  2  0
  4  5  1  0
  5  6  2  0
  6  1  1  0
  4  7  1  0
  7  8  1  0
  8  9  2  0
  9  5  1  0
 10 11  2  0
 10 12  2  0
  1 14  1  0
 10 14  1  6
 13 15  2  0
 15 16  1  0
 16 17  2  0
 17 18  1  0
 18 19  2  0
 19 13  1  0
 20 13  1  6
 20 10  1  0
M  END
>  <fitscore>  (30) 
0.17042

$$$$
sQC_Substrate__STK936575_rank_30
     RDKit          3D

 20 22  0  0  0  0  0  0  0  0999 V2000
   37.4966   43.7076   57.5064 C   0  0  0  0  0  0  0  0  0  1  0  0
   36.2751   43.1927   57.0456 C   0  0  0  0  0  0  0  0  0  2  0  0
   35.8076   43.4040   55.7699 C   0  0  0  0  0  0  0  0  0  3  0  0
   36.5616   44.1563   54.8840 C   0  0  0  0  0  0  0  0  0  4  0  0
   37.7648   44.6773   55.3019 C   0  0  0  0  0  0  0  0  0  5  0  0
   38.2141   44.4443   56.6103 C   0  0  0  0  0  0  0  0  0  6  0  0
   36.4108   44.5474   53.6015 N   0  0  0  0  0  0  0  0  0  7  0  0
   37.4741   45.2883   53.2150 C   0  0  0  0  0  0  0  0  0  8  0  0
   38.3036   45.3626   54.2710 N   0  0  0  0  0  0  0  0  0  9  0  0
   39.4882   43.5196   59.3836 S   0  0  1  0  0  6  0  0  0 10  0  0
   39.4751   44.0705   60.8105 O   0  0  0  0  0  0  0  0  0 11  0  0
   40.1252   42.1487   59.4980 O   0  0  0  0  0  0  0  0  0 12  0  0
   41.9143   44.5086   59.0703 C   0  0  0  0  0  0  0  0  0 13  0  0
   37.8986   43.4120   58.8306 N   0  0  0  0  0  0  0  0  0 14  0  0
   42.7361   43.4553   58.8136 C   0  0  0  0  0  0  0  0  0 15  0  0
   44.0132   43.3502   59.3751 C   0  0  0  0  0  0  0  0  0 16  0  0
   44.4220   44.3517   60.2039 C   0  0  0  0  0  0  0  0  0 17  0  0
   43.6066   45.4369   60.4837 C   0  0  0  0  0  0  0  0  0 18  0  0
   42.3355   45.5147   59.9080 C   0  0  0  0  0  0  0  0  0 19  0  0
   40.5329   44.5989   58.4484 C   0  0  0  0  0  0  0  0  0 20  0  0
  1  2  2  0
  2  3  1  0
  3  4  2  0
  4  5  1  0
  5  6  2  0
  6  1  1  0
  4  7  1  0
  7  8  1  0
  8  9  2  0
  9  5  1  0
 10 11  2  0
 10 12  2  0
  1 14  1  0
 10 14  1  6
 13 15  2  0
 15 16  1  0
 16 17  2  0
 17 18  1  0
 18 19  2  0
 19 13  1  0
 20 13  1  6
 20 10  1  0
M  END
>  <fitscore>  (31) 
0.159021

$$$$
sQC_Substrate__STK936575_rank_31
     RDKit          3D

 20 22  0  0  0  0  0  0  0  0999 V2000
   37.4664   43.8015   55.5335 C   0  0  0  0  0  0  0  0  0  1  0  0
   36.1558   44.2930   55.4324 C   0  0  0  0  0  0  0  0  0  2  0  0
   35.7929   45.2792   54.5455 C   0  0  0  0  0  0  0  0  0  3  0  0
   36.7495   45.8253   53.7052 C   0  0  0  0  0  0  0  0  0  4  0  0
   38.0452   45.3676   53.7773 C   0  0  0  0  0  0  0  0  0  5  0  0
   38.3840   44.3604   54.6933 C   0  0  0  0  0  0  0  0  0  6  0  0
   36.7420   46.7753   52.7471 N   0  0  0  0  0  0  0  0  0  7  0  0
   37.9823   46.9193   52.2277 C   0  0  0  0  0  0  0  0  0  8  0  0
   38.7789   46.0465   52.8698 N   0  0  0  0  0  0  0  0  0  9  0  0
   39.1288   42.6730   57.4013 S   0  0  1  0  0  6  0  0  0 10  0  0
   38.9548   41.5541   58.4296 O   0  0  0  0  0  0  0  0  0 11  0  0
   40.3246   42.2572   56.5674 O   0  0  0  0  0  0  0  0  0 12  0  0
   40.7310   43.8092   59.1632 C   0  0  0  0  0  0  0  0  0 13  0  0
   37.7309   42.7674   56.4626 N   0  0  0  0  0  0  0  0  0 14  0  0
   40.6115   43.4227   60.4620 C   0  0  0  0  0  0  0  0  0 15  0  0
   41.7225   43.1178   61.2557 C   0  0  0  0  0  0  0  0  0 16  0  0
   42.9544   43.2201   60.6822 C   0  0  0  0  0  0  0  0  0 17  0  0
   43.1069   43.6114   59.3614 C   0  0  0  0  0  0  0  0  0 18  0  0
   41.9784   43.9097   58.5928 C   0  0  0  0  0  0  0  0  0 19  0  0
   39.5095   44.1345   58.3232 C   0  0  0  0  0  0  0  0  0 20  0  0
  1  2  2  0
  2  3  1  0
  3  4  2  0
  4  5  1  0
  5  6  2  0
  6  1  1  0
  4  7  1  0
  7  8  1  0
  8  9  2  0
  9  5  1  0
 10 11  2  0
 10 12  2  0
  1 14  1  0
 10 14  1  6
 13 15  2  0
 15 16  1  0
 16 17  2  0
 17 18  1  0
 18 19  2  0
 19 13  1  0
 20 13  1  6
 20 10  1  0
M  END
>  <fitscore>  (32) 
0.13472

$$$$
sQC_Substrate__STK936575_rank_32
     RDKit          3D

 20 22  0  0  0  0  0  0  0  0999 V2000
   37.8540   44.0708   55.7001 C   0  0  0  0  0  0  0  0  0  1  0  0
   39.2362   44.0394   55.4595 C   0  0  0  0  0  0  0  0  0  2  0  0
   39.8079   44.5411   54.3139 C   0  0  0  0  0  0  0  0  0  3  0  0
   39.0001   45.1072   53.3411 C   0  0  0  0  0  0  0  0  0  4  0  0
   37.6397   45.1546   53.5434 C   0  0  0  0  0  0  0  0  0  5  0  0
   37.0869   44.6337   54.7229 C   0  0  0  0  0  0  0  0  0  6  0  0
   39.2185   45.6762   52.1374 N   0  0  0  0  0  0  0  0  0  7  0  0
   38.0457   46.0712   51.5921 C   0  0  0  0  0  0  0  0  0  8  0  0
   37.0779   45.7450   52.4670 N   0  0  0  0  0  0  0  0  0  9  0  0
   38.1814   43.6756   58.3950 S   0  0  1  0  0  6  0  0  0 10  0  0
   38.8626   45.0434   58.4639 O   0  0  0  0  0  0  0  0  0 11  0  0
   37.2132   43.6601   59.5614 O   0  0  0  0  0  0  0  0  0 12  0  0
   40.1834   42.8804   59.9188 C   0  0  0  0  0  0  0  0  0 13  0  0
   37.3685   43.5494   56.9228 N   0  0  0  0  0  0  0  0  0 14  0  0
   41.3147   43.6348   59.8753 C   0  0  0  0  0  0  0  0  0 15  0  0
   42.0008   44.0194   61.0323 C   0  0  0  0  0  0  0  0  0 16  0  0
   41.4961   43.6102   62.2302 C   0  0  0  0  0  0  0  0  0 17  0  0
   40.3456   42.8410   62.3053 C   0  0  0  0  0  0  0  0  0 18  0  0
   39.6814   42.4720   61.1323 C   0  0  0  0  0  0  0  0  0 19  0  0
   39.4576   42.4764   58.6486 C   0  0  0  0  0  0  0  0  0 20  0  0
  1  2  2  0
  2  3  1  0
  3  4  2  0
  4  5  1  0
  5  6  2  0
  6  1  1  0
  4  7  1  0
  7  8  1  0
  8  9  2  0
  9  5  1  0
 10 11  2  0
 10 12  2  0
  1 14  1  0
 10 14  1  6
 13 15  2  0
 15 16  1  0
 16 17  2  0
 17 18  1  0
 18 19  2  0
 19 13  1  0
 20 13  1  6
 20 10  1  0
M  END
>  <fitscore>  (33) 
0.116903

$$$$
sQC_Substrate__STK936575_rank_33
     RDKit          3D

 20 22  0  0  0  0  0  0  0  0999 V2000
   37.8027   42.9475   56.7399 C   0  0  0  0  0  0  0  0  0  1  0  0
   36.4391   43.0064   56.4132 C   0  0  0  0  0  0  0  0  0  2  0  0
   35.9051   43.9813   55.6039 C   0  0  0  0  0  0  0  0  0  3  0  0
   36.7337   44.9587   55.0771 C   0  0  0  0  0  0  0  0  0  4  0  0
   38.0765   44.9322   55.3769 C   0  0  0  0  0  0  0  0  0  5  0  0
   38.5909   43.9244   56.2062 C   0  0  0  0  0  0  0  0  0  6  0  0
   36.5516   46.0273   54.2738 N   0  0  0  0  0  0  0  0  0  7  0  0
   37.7298   46.6584   54.0681 C   0  0  0  0  0  0  0  0  0  8  0  0
   38.6642   45.9753   54.7528 N   0  0  0  0  0  0  0  0  0  9  0  0
   39.8412   41.7321   58.1159 S   0  0  1  0  0  6  0  0  0 10  0  0
   40.1301   40.2507   58.3647 O   0  0  0  0  0  0  0  0  0 11  0  0
   40.8389   42.1538   57.0553 O   0  0  0  0  0  0  0  0  0 12  0  0
   39.8745   44.0315   59.4095 C   0  0  0  0  0  0  0  0  0 13  0  0
   38.2560   41.8885   57.5618 N   0  0  0  0  0  0  0  0  0 14  0  0
   40.7697   44.8555   58.8009 C   0  0  0  0  0  0  0  0  0 15  0  0
   40.5055   46.2112   58.5784 C   0  0  0  0  0  0  0  0  0 16  0  0
   39.3024   46.6961   58.9960 C   0  0  0  0  0  0  0  0  0 17  0  0
   38.3709   45.8804   59.6188 C   0  0  0  0  0  0  0  0  0 18  0  0
   38.6627   44.5297   59.8276 C   0  0  0  0  0  0  0  0  0 19  0  0
   40.1854   42.5639   59.6391 C   0  0  0  0  0  0  0  0  0 20  0  0
  1  2  2  0
  2  3  1  0
  3  4  2  0
  4  5  1  0
  5  6  2  0
  6  1  1  0
  4  7  1  0
  7  8  1  0
  8  9  2  0
  9  5  1  0
 10 11  2  0
 10 12  2  0
  1 14  1  0
 10 14  1  6
 13 15  2  0
 15 16  1  0
 16 17  2  0
 17 18  1  0
 18 19  2  0
 19 13  1  0
 20 13  1  6
 20 10  1  0
M  END
>  <fitscore>  (34) 
0.103222

$$$$
sQC_Substrate__STK936575_rank_34
     RDKit          3D

 20 22  0  0  0  0  0  0  0  0999 V2000
   38.2235   43.0389   56.1609 C   0  0  0  0  0  0  0  0  0  1  0  0
   37.6120   42.1473   55.2661 C   0  0  0  0  0  0  0  0  0  2  0  0
   37.4396   42.4277   53.9311 C   0  0  0  0  0  0  0  0  0  3  0  0
   37.8825   43.6397   53.4268 C   0  0  0  0  0  0  0  0  0  4  0  0
   38.4865   44.5386   54.2758 C   0  0  0  0  0  0  0  0  0  5  0  0
   38.6474   44.2230   55.6333 C   0  0  0  0  0  0  0  0  0  6  0  0
   37.8758   44.2222   52.2098 N   0  0  0  0  0  0  0  0  0  7  0  0
   38.4521   45.4437   52.2778 C   0  0  0  0  0  0  0  0  0  8  0  0
   38.8254   45.6296   53.5563 N   0  0  0  0  0  0  0  0  0  9  0  0
   39.5141   43.3003   58.5676 S   0  0  1  0  0  6  0  0  0 10  0  0
   39.7898   42.2893   59.6818 O   0  0  0  0  0  0  0  0  0 11  0  0
   40.8503   43.5009   57.8802 O   0  0  0  0  0  0  0  0  0 12  0  0
   39.6604   44.7845   60.7443 C   0  0  0  0  0  0  0  0  0 13  0  0
   38.3747   42.6442   57.5114 N   0  0  0  0  0  0  0  0  0 14  0  0
   39.0015   44.2990   61.8308 C   0  0  0  0  0  0  0  0  0 15  0  0
   39.5769   44.2788   63.1059 C   0  0  0  0  0  0  0  0  0 16  0  0
   40.8420   44.7685   63.2346 C   0  0  0  0  0  0  0  0  0 17  0  0
   41.5377   45.2695   62.1456 C   0  0  0  0  0  0  0  0  0 18  0  0
   40.9370   45.2768   60.8837 C   0  0  0  0  0  0  0  0  0 19  0  0
   39.0137   44.7951   59.3713 C   0  0  0  0  0  0  0  0  0 20  0  0
  1  2  2  0
  2  3  1  0
  3  4  2  0
  4  5  1  0
  5  6  2  0
  6  1  1  0
  4  7  1  0
  7  8  1  0
  8  9  2  0
  9  5  1  0
 10 11  2  0
 10 12  2  0
  1 14  1  0
 10 14  1  6
 13 15  2  0
 15 16  1  0
 16 17  2  0
 17 18  1  0
 18 19  2  0
 19 13  1  0
 20 13  1  6
 20 10  1  0
M  END
>  <fitscore>  (35) 
0.0957421

$$$$
sQC_Substrate__STK936575_rank_35
     RDKit          3D

 20 22  0  0  0  0  0  0  0  0999 V2000
   38.5490   44.7209   56.6186 C   0  0  0  0  0  0  0  0  0  1  0  0
   37.2753   44.3710   56.1448 C   0  0  0  0  0  0  0  0  0  2  0  0
   36.7203   44.9219   55.0137 C   0  0  0  0  0  0  0  0  0  3  0  0
   37.4348   45.8668   54.2953 C   0  0  0  0  0  0  0  0  0  4  0  0
   38.6872   46.2344   54.7312 C   0  0  0  0  0  0  0  0  0  5  0  0
   39.2256   45.6541   55.8895 C   0  0  0  0  0  0  0  0  0  6  0  0
   37.2023   46.5866   53.1781 N   0  0  0  0  0  0  0  0  0  7  0  0
   38.2627   47.3820   52.9103 C   0  0  0  0  0  0  0  0  0  8  0  0
   39.1734   47.1573   53.8742 N   0  0  0  0  0  0  0  0  0  9  0  0
   40.6759   43.8589   58.1217 S   0  0  1  0  0  6  0  0  0 10  0  0
   41.3800   43.3649   56.8568 O   0  0  0  0  0  0  0  0  0 11  0  0
   41.3485   45.1757   58.4563 O   0  0  0  0  0  0  0  0  0 12  0  0
   39.7062   41.9819   59.7023 C   0  0  0  0  0  0  0  0  0 13  0  0
   39.0390   44.0771   57.7797 N   0  0  0  0  0  0  0  0  0 14  0  0
   39.2737   40.9065   58.9900 C   0  0  0  0  0  0  0  0  0 15  0  0
   38.0635   40.2628   59.2702 C   0  0  0  0  0  0  0  0  0 16  0  0
   37.3125   40.7511   60.2971 C   0  0  0  0  0  0  0  0  0 17  0  0
   37.7276   41.8450   61.0401 C   0  0  0  0  0  0  0  0  0 18  0  0
   38.9415   42.4677   60.7370 C   0  0  0  0  0  0  0  0  0 19  0  0
   41.0234   42.6625   59.3782 C   0  0  0  0  0  0  0  0  0 20  0  0
  1  2  2  0
  2  3  1  0
  3  4  2  0
  4  5  1  0
  5  6  2  0
  6  1  1  0
  4  7  1  0
  7  8  1  0
  8  9  2  0
  9  5  1  0
 10 11  2  0
 10 12  2  0
  1 14  1  0
 10 14  1  6
 13 15  2  0
 15 16  1  0
 16 17  2  0
 17 18  1  0
 18 19  2  0
 19 13  1  0
 20 13  1  6
 20 10  1  0
M  END
>  <fitscore>  (36) 
0.084646

$$$$
sQC_Substrate__STK936575_rank_36
     RDKit          3D

 20 22  0  0  0  0  0  0  0  0999 V2000
   38.5882   43.2616   58.4357 C   0  0  0  0  0  0  0  0  0  1  0  0
   37.3862   43.3159   59.1581 C   0  0  0  0  0  0  0  0  0  2  0  0
   37.3099   43.0490   60.5048 C   0  0  0  0  0  0  0  0  0  3  0  0
   38.4603   42.7091   61.1982 C   0  0  0  0  0  0  0  0  0  4  0  0
   39.6569   42.6458   60.5216 C   0  0  0  0  0  0  0  0  0  5  0  0
   39.7017   42.9234   59.1471 C   0  0  0  0  0  0  0  0  0  6  0  0
   38.7394   42.3955   62.4804 N   0  0  0  0  0  0  0  0  0  7  0  0
   40.0606   42.1419   62.6182 C   0  0  0  0  0  0  0  0  0  8  0  0
   40.6177   42.2989   61.4043 N   0  0  0  0  0  0  0  0  0  9  0  0
   39.9097   44.0858   56.1774 S   0  0  1  0  0  6  0  0  0 10  0  0
   40.9834   44.5637   57.1564 O   0  0  0  0  0  0  0  0  0 11  0  0
   40.5464   42.9308   55.4298 O   0  0  0  0  0  0  0  0  0 12  0  0
   38.5308   44.9793   54.1129 C   0  0  0  0  0  0  0  0  0 13  0  0
   38.5632   43.5780   57.0567 N   0  0  0  0  0  0  0  0  0 14  0  0
   37.2174   45.2354   54.3583 C   0  0  0  0  0  0  0  0  0 15  0  0
   36.2012   44.8246   53.4888 C   0  0  0  0  0  0  0  0  0 16  0  0
   36.5685   44.1467   52.3652 C   0  0  0  0  0  0  0  0  0 17  0  0
   37.8985   43.8715   52.0890 C   0  0  0  0  0  0  0  0  0 18  0  0
   38.8920   44.2944   52.9763 C   0  0  0  0  0  0  0  0  0 19  0  0
   39.6144   45.4358   55.0724 C   0  0  0  0  0  0  0  0  0 20  0  0
  1  2  2  0
  2  3  1  0
  3  4  2  0
  4  5  1  0
  5  6  2  0
  6  1  1  0
  4  7  1  0
  7  8  1  0
  8  9  2  0
  9  5  1  0
 10 11  2  0
 10 12  2  0
  1 14  1  0
 10 14  1  1
 13 15  2  0
 15 16  1  0
 16 17  2  0
 17 18  1  0
 18 19  2  0
 19 13  1  0
 20 13  1  6
 20 10  1  0
M  END
>  <fitscore>  (37) 
0.0818531

$$$$
sQC_Substrate__STK936575_rank_37
     RDKit          3D

 20 22  0  0  0  0  0  0  0  0999 V2000
   37.9130   44.2064   55.8775 C   0  0  0  0  0  0  0  0  0  1  0  0
   37.4116   45.4520   55.4694 C   0  0  0  0  0  0  0  0  0  2  0  0
   37.6952   46.0077   54.2440 C   0  0  0  0  0  0  0  0  0  3  0  0
   38.5109   45.3229   53.3579 C   0  0  0  0  0  0  0  0  0  4  0  0
   39.0208   44.0987   53.7250 C   0  0  0  0  0  0  0  0  0  5  0  0
   38.7132   43.5587   54.9828 C   0  0  0  0  0  0  0  0  0  6  0  0
   38.9786   45.5648   52.1157 N   0  0  0  0  0  0  0  0  0  7  0  0
   39.7560   44.5372   51.7051 C   0  0  0  0  0  0  0  0  0  8  0  0
   39.7757   43.6379   52.7049 N   0  0  0  0  0  0  0  0  0  9  0  0
   38.6334   43.3712   58.3894 S   0  0  1  0  0  6  0  0  0 10  0  0
   38.1030   42.1867   59.1990 O   0  0  0  0  0  0  0  0  0 11  0  0
   39.9651   42.9035   57.8361 O   0  0  0  0  0  0  0  0  0 12  0  0
   40.0232   44.2537   60.4513 C   0  0  0  0  0  0  0  0  0 13  0  0
   37.5413   43.7119   57.1502 N   0  0  0  0  0  0  0  0  0 14  0  0
   39.7922   43.5280   61.5785 C   0  0  0  0  0  0  0  0  0 15  0  0
   40.8257   43.1181   62.4277 C   0  0  0  0  0  0  0  0  0 16  0  0
   42.0975   43.4720   62.0897 C   0  0  0  0  0  0  0  0  0 17  0  0
   42.3630   44.2109   60.9476 C   0  0  0  0  0  0  0  0  0 18  0  0
   41.3100   44.6063   60.1181 C   0  0  0  0  0  0  0  0  0 19  0  0
   38.8840   44.6862   59.5465 C   0  0  0  0  0  0  0  0  0 20  0  0
  1  2  2  0
  2  3  1  0
  3  4  2  0
  4  5  1  0
  5  6  2  0
  6  1  1  0
  4  7  1  0
  7  8  1  0
  8  9  2  0
  9  5  1  0
 10 11  2  0
 10 12  2  0
  1 14  1  0
 10 14  1  6
 13 15  2  0
 15 16  1  0
 16 17  2  0
 17 18  1  0
 18 19  2  0
 19 13  1  0
 20 13  1  6
 20 10  1  0
M  END
>  <fitscore>  (38) 
0.072198

$$$$
sQC_Substrate__STK936575_rank_38
     RDKit          3D

 20 22  0  0  0  0  0  0  0  0999 V2000
   38.3429   43.3970   55.9617 C   0  0  0  0  0  0  0  0  0  1  0  0
   37.1108   43.4784   55.2947 C   0  0  0  0  0  0  0  0  0  2  0  0
   36.9898   43.3631   53.9299 C   0  0  0  0  0  0  0  0  0  3  0  0
   38.1233   43.1570   53.1605 C   0  0  0  0  0  0  0  0  0  4  0  0
   39.3486   43.0724   53.7810 C   0  0  0  0  0  0  0  0  0  5  0  0
   39.4391   43.1946   55.1757 C   0  0  0  0  0  0  0  0  0  6  0  0
   38.3615   43.0035   51.8414 N   0  0  0  0  0  0  0  0  0  7  0  0
   39.6852   42.8280   51.6270 C   0  0  0  0  0  0  0  0  0  8  0  0
   40.2854   42.8721   52.8297 N   0  0  0  0  0  0  0  0  0  9  0  0
   39.7576   43.6752   58.2956 S   0  0  1  0  0  6  0  0  0 10  0  0
   40.6271   42.4317   58.1025 O   0  0  0  0  0  0  0  0  0 11  0  0
   40.6066   44.8287   57.7988 O   0  0  0  0  0  0  0  0  0 12  0  0
   38.7516   45.1323   60.2519 C   0  0  0  0  0  0  0  0  0 13  0  0
   38.3565   43.5043   57.3726 N   0  0  0  0  0  0  0  0  0 14  0  0
   37.3922   45.1803   60.2686 C   0  0  0  0  0  0  0  0  0 15  0  0
   36.6894   46.3742   60.4636 C   0  0  0  0  0  0  0  0  0 16  0  0
   37.4171   47.5127   60.6402 C   0  0  0  0  0  0  0  0  0 17  0  0
   38.8029   47.4943   60.6279 C   0  0  0  0  0  0  0  0  0 18  0  0
   39.4778   46.2864   60.4309 C   0  0  0  0  0  0  0  0  0 19  0  0
   39.4904   43.8238   60.0384 C   0  0  0  0  0  0  0  0  0 20  0  0
  1  2  2  0
  2  3  1  0
  3  4  2  0
  4  5  1  0
  5  6  2  0
  6  1  1  0
  4  7  1  0
  7  8  1  0
  8  9  2  0
  9  5  1  0
 10 11  2  0
 10 12  2  0
  1 14  1  0
 10 14  1  6
 13 15  2  0
 15 16  1  0
 16 17  2  0
 17 18  1  0
 18 19  2  0
 19 13  1  0
 20 13  1  6
 20 10  1  0
M  END
>  <fitscore>  (39) 
0.0699186

$$$$
sQC_Substrate__STK936575_rank_39
     RDKit          3D

 20 22  0  0  0  0  0  0  0  0999 V2000
   38.2166   42.6514   56.6462 C   0  0  0  0  0  0  0  0  0  1  0  0
   37.2211   41.7065   56.3537 C   0  0  0  0  0  0  0  0  0  2  0  0
   36.1812   41.9583   55.4901 C   0  0  0  0  0  0  0  0  0  3  0  0
   36.0942   43.1944   54.8705 C   0  0  0  0  0  0  0  0  0  4  0  0
   37.0531   44.1455   55.1343 C   0  0  0  0  0  0  0  0  0  5  0  0
   38.1017   43.8581   56.0208 C   0  0  0  0  0  0  0  0  0  6  0  0
   35.2369   43.7610   53.9962 N   0  0  0  0  0  0  0  0  0  7  0  0
   35.6314   45.0231   53.7125 C   0  0  0  0  0  0  0  0  0  8  0  0
   36.7526   45.2507   54.4194 N   0  0  0  0  0  0  0  0  0  9  0  0
   40.2506   43.3864   58.3340 S   0  0  1  0  0  6  0  0  0 10  0  0
   39.4082   44.1503   59.3570 O   0  0  0  0  0  0  0  0  0 11  0  0
   41.3124   42.6771   59.1511 O   0  0  0  0  0  0  0  0  0 12  0  0
   41.8575   45.4751   58.2028 C   0  0  0  0  0  0  0  0  0 13  0  0
   39.2584   42.2843   57.5308 N   0  0  0  0  0  0  0  0  0 14  0  0
   41.3347   46.5440   58.8622 C   0  0  0  0  0  0  0  0  0 15  0  0
   42.1070   47.3548   59.7010 C   0  0  0  0  0  0  0  0  0 16  0  0
   43.4251   47.0398   59.8438 C   0  0  0  0  0  0  0  0  0 17  0  0
   43.9853   45.9569   59.1845 C   0  0  0  0  0  0  0  0  0 18  0  0
   43.1889   45.1648   58.3530 C   0  0  0  0  0  0  0  0  0 19  0  0
   40.9981   44.6110   57.2983 C   0  0  0  0  0  0  0  0  0 20  0  0
  1  2  2  0
  2  3  1  0
  3  4  2  0
  4  5  1  0
  5  6  2  0
  6  1  1  0
  4  7  1  0
  7  8  1  0
  8  9  2  0
  9  5  1  0
 10 11  2  0
 10 12  2  0
  1 14  1  0
 10 14  1  6
 13 15  2  0
 15 16  1  0
 16 17  2  0
 17 18  1  0
 18 19  2  0
 19 13  1  0
 20 13  1  6
 20 10  1  0
M  END
>  <fitscore>  (40) 
0.0232561

$$$$
