STK324209
  DSViewer          3D                             0

 31 32  0  0  0  0  0  0  0  0999 V2000
   35.3732  -49.8327   -0.9605 S   0  0  0  0  0  0  0  0  0  1
   35.3628  -51.1216   -0.0701 C   0  0  0  0  0  0  0  0  0  2
   36.5674  -51.6722    0.4029 N   0  0  0  0  0  0  0  0  0  3
   37.8130  -51.0961    0.1006 C   0  0  0  0  0  0  0  0  0  4
   38.0286  -50.0630   -0.5950 N   0  0  0  0  0  0  0  0  0  5
   39.3855  -49.8827   -0.6163 N   0  0  0  0  0  0  0  0  0  6
   39.9410  -50.7618    0.0315 N   0  0  0  0  0  0  0  0  0  7
   39.0056  -51.5583    0.5095 N   0  0  0  0  0  0  0  0  0  8
   34.1539  -51.7619    0.2777 N   0  0  0  0  0  0  0  0  0  9
   32.9629  -51.3130   -0.1291 C   0  0  0  0  0  0  0  0  0 10
   32.8574  -50.3062   -0.8364 O   0  0  0  0  0  0  0  0  0 11
   31.7317  -52.0492    0.2801 C   0  0  0  0  0  0  0  0  0 12
   31.6242  -53.3199   -0.5777 C   0  0  0  0  0  0  0  0  0 13
   30.3697  -54.1097   -0.1687 C   0  0  0  0  0  0  0  0  0 14
   29.1217  -53.2361   -0.3901 C   0  0  0  0  0  0  0  0  0 15
   29.2296  -51.9620    0.4672 C   0  0  0  0  0  0  0  0  0 16
   30.4872  -51.1747    0.0588 C   0  0  0  0  0  0  0  0  0 17
   36.5367  -52.4914    0.9657 H   0  0  0  0  0  0  0  0  0 18
   39.1563  -52.3626    1.0746 H   0  0  0  0  0  0  0  0  0 19
   34.1909  -52.5772    0.8463 H   0  0  0  0  0  0  0  0  0 20
   31.8226  -52.3680    1.3277 H   0  0  0  0  0  0  0  0  0 21
   31.5526  -53.0398   -1.6378 H   0  0  0  0  0  0  0  0  0 22
   32.5169  -53.9412   -0.4208 H   0  0  0  0  0  0  0  0  0 23
   30.2936  -55.0192   -0.7804 H   0  0  0  0  0  0  0  0  0 24
   30.4408  -54.3849    0.8931 H   0  0  0  0  0  0  0  0  0 25
   29.0539  -52.9579   -1.4514 H   0  0  0  0  0  0  0  0  0 26
   28.2240  -53.7987   -0.0991 H   0  0  0  0  0  0  0  0  0 27
   28.3393  -51.3378    0.3098 H   0  0  0  0  0  0  0  0  0 28
   29.3013  -52.2402    1.5281 H   0  0  0  0  0  0  0  0  0 29
   30.4182  -50.8998   -1.0031 H   0  0  0  0  0  0  0  0  0 30
   30.5660  -50.2652    0.6696 H   0  0  0  0  0  0  0  0  0 31
  1  2  2  0  0  0
  2  3  1  0  0  0
  3  4  1  0  0  0
  4  5  2  0  0  0
  5  6  1  0  0  0
  6  7  2  0  0  0
  7  8  1  0  0  0
  4  8  1  0  0  0
  2  9  1  0  0  0
  9 10  1  0  0  0
 10 11  2  0  0  0
 10 12  1  0  0  0
 12 13  1  0  0  0
 13 14  1  0  0  0
 14 15  1  0  0  0
 15 16  1  0  0  0
 16 17  1  0  0  0
 12 17  1  0  0  0
  3 18  1  0  0  0
  8 19  1  0  0  0
  9 20  1  0  0  0
 12 21  1  0  0  0
 13 22  1  0  0  0
 13 23  1  0  0  0
 14 24  1  0  0  0
 14 25  1  0  0  0
 15 26  1  0  0  0
 15 27  1  0  0  0
 16 28  1  0  0  0
 16 29  1  0  0  0
 17 30  1  0  0  0
 17 31  1  0  0  0
M  END
> <Clean Energy>
26.6626

$$$$
