STK441223
  DSViewer          3D                             0

 24 24  0  0  0  0  0  0  0  0999 V2000
   20.8536  -70.7936    0.1617 O   0  0  0  0  0  0  0  0  0  1
   19.6682  -71.5189    0.1364 C   0  0  0  0  0  0  0  0  0  2
   19.6998  -72.7546    0.1377 O   0  0  0  0  0  0  0  0  0  3
   18.3858  -70.8205    0.1083 C   0  0  0  0  0  0  0  0  0  4
   17.2514  -71.5151    0.0841 C   0  0  0  0  0  0  0  0  0  5
   15.9710  -70.8186    0.0560 C   0  0  0  0  0  0  0  0  0  6
   15.9488  -69.5838    0.0549 O   0  0  0  0  0  0  0  0  0  7
   14.8439  -71.5305    0.0320 N   0  0  0  0  0  0  0  0  0  8
   13.5766  -70.8950    0.0042 C   0  0  0  0  0  0  0  0  0  9
   13.3739  -69.2208   -0.0011 S   0  0  0  0  0  0  0  0  0 10
   11.7158  -69.1594   -0.0370 C   0  0  0  0  0  0  0  0  0 11
   11.2459  -70.4071   -0.0465 C   0  0  0  0  0  0  0  0  0 12
   12.3433  -71.4610   -0.0222 C   0  0  0  0  0  0  0  0  0 13
   11.9650  -72.9133   -0.0296 C   0  0  0  0  0  0  0  0  0 14
   10.7602  -73.1874   -0.0555 O   0  0  0  0  0  0  0  0  0 15
   12.8733  -73.9836   -0.0093 N   0  0  0  0  0  0  0  0  0 16
   21.6211  -71.4177    0.1786 H   0  0  0  0  0  0  0  0  0 17
   18.3593  -69.7600    0.1072 H   0  0  0  0  0  0  0  0  0 18
   17.2773  -72.5755    0.0851 H   0  0  0  0  0  0  0  0  0 19
   14.9131  -72.4886    0.0339 H   0  0  0  0  0  0  0  0  0 20
   11.1284  -68.2760   -0.0502 H   0  0  0  0  0  0  0  0  0 21
   10.2117  -70.6420   -0.0688 H   0  0  0  0  0  0  0  0  0 22
   13.8233  -73.8386    0.0113 H   0  0  0  0  0  0  0  0  0 23
   12.5249  -74.9146   -0.0163 H   0  0  0  0  0  0  0  0  0 24
  1  2  1  0  0  0
  2  3  2  0  0  0
  2  4  1  0  0  0
  4  5  2  0  0  0
  5  6  1  0  0  0
  6  7  2  0  0  0
  6  8  1  0  0  0
  8  9  1  0  0  0
  9 10  1  0  0  0
 10 11  1  0  0  0
 11 12  2  0  0  0
 12 13  1  0  0  0
  9 13  2  0  0  0
 13 14  1  0  0  0
 14 15  2  0  0  0
 14 16  1  0  0  0
  1 17  1  0  0  0
  4 18  1  0  0  0
  5 19  1  0  0  0
  8 20  1  0  0  0
 11 21  1  0  0  0
 12 22  1  0  0  0
 16 23  1  0  0  0
 16 24  1  0  0  0
M  END
> <Clean Energy>
23.2581

$$$$
