STK779818
  DSViewer          3D                             0

 27 28  0  0  0  0  0  0  0  0999 V2000
   12.9984  -27.5337   -0.0043 O   0  0  0  0  0  0  0  0  0  1
   13.0101  -26.2983   -0.0021 C   0  0  0  0  0  0  0  0  0  2
   11.7287  -25.5584    0.0005 C   0  0  0  0  0  0  0  0  0  3
   10.4284  -26.1358    0.0009 C   0  0  0  0  0  0  0  0  0  4
   10.1218  -27.5008   -0.0010 N   0  0  0  0  0  0  0  0  0  5
    9.5793  -25.1912    0.0033 N   0  0  0  0  0  0  0  0  0  6
   10.2593  -24.0416    0.0045 O   0  0  0  0  0  0  0  0  0  7
   11.5530  -24.3046    0.0027 N   0  3  0  0  0  0  0  0  0  8
   12.5008  -23.3833    0.0033 O   0  5  0  0  0  0  0  0  0  9
   14.1806  -25.6662   -0.0020 N   0  0  0  0  0  0  0  0  0 10
   15.3892  -26.4245   -0.0045 C   0  0  0  0  0  0  0  0  0 11
   16.5973  -25.4792    0.0017 C   0  0  0  0  0  0  0  0  0 12
   17.9030  -26.2316    0.0001 C   0  0  0  0  0  0  0  0  0 13
   19.1094  -25.6832   -0.0128 C   0  0  0  0  0  0  0  0  0 14
   20.0910  -26.7067   -0.0098 N   0  0  0  0  0  0  0  0  0 15
   19.4600  -27.8205    0.0046 C   0  0  0  0  0  0  0  0  0 16
   18.0886  -27.5920    0.0114 N   0  0  0  0  0  0  0  0  0 17
   10.8466  -28.1774   -0.0028 H   0  0  0  0  0  0  0  0  0 18
    9.1717  -27.7937   -0.0005 H   0  0  0  0  0  0  0  0  0 19
   14.2229  -24.6827   -0.0001 H   0  0  0  0  0  0  0  0  0 20
   15.4107  -27.0732    0.8823 H   0  0  0  0  0  0  0  0  0 21
   15.4128  -27.0639   -0.8979 H   0  0  0  0  0  0  0  0  0 22
   16.5767  -24.8162   -0.8744 H   0  0  0  0  0  0  0  0  0 23
   16.5733  -24.8274    0.8861 H   0  0  0  0  0  0  0  0  0 24
   19.3084  -24.6416   -0.0237 H   0  0  0  0  0  0  0  0  0 25
   19.9166  -28.7778    0.0105 H   0  0  0  0  0  0  0  0  0 26
   17.3824  -28.2914    0.0228 H   0  0  0  0  0  0  0  0  0 27
  1  2  2  0  0  0
  2  3  1  0  0  0
  3  4  1  0  0  0
  4  5  1  0  0  0
  4  6  2  0  0  0
  6  7  1  0  0  0
  7  8  1  0  0  0
  3  8  2  0  0  0
  8  9  1  0  0  0
  2 10  1  0  0  0
 10 11  1  0  0  0
 11 12  1  0  0  0
 12 13  1  0  0  0
 13 14  2  0  0  0
 14 15  1  0  0  0
 15 16  2  0  0  0
 16 17  1  0  0  0
 13 17  1  0  0  0
  5 18  1  0  0  0
  5 19  1  0  0  0
 10 20  1  0  0  0
 11 21  1  0  0  0
 11 22  1  0  0  0
 12 23  1  0  0  0
 12 24  1  0  0  0
 14 25  1  0  0  0
 16 26  1  0  0  0
 17 27  1  0  0  0
M  CHG  2   8   1   9  -1
M  END
> <Clean Energy>
57.3475

$$$$
