STK954214
  DSViewer          3D                             0

 25 26  0  0  0  0  0  0  0  0999 V2000
   12.9500  -17.0283   -0.0228 C   0  0  0  0  0  0  0  0  0  1
   12.6474  -15.5580   -0.0706 C   0  0  0  0  0  0  0  0  0  2
   11.3784  -15.0135   -0.1594 N   0  0  0  0  0  0  0  0  0  3
   11.4428  -13.6633   -0.1822 N   0  0  0  0  0  0  0  0  0  4
   12.6751  -13.3290   -0.1130 C   0  0  0  0  0  0  0  0  0  5
   13.5118  -14.5526   -0.0373 C   0  0  0  0  0  0  0  0  0  6
   15.0161  -14.6789    0.0577 C   0  0  0  0  0  0  0  0  0  7
   15.6481  -15.7943    0.1187 N   0  0  0  0  0  0  0  0  0  8
   16.9786  -15.5244    0.1951 N   0  0  0  0  0  0  0  0  0  9
   17.1830  -14.1600    0.1807 C   0  0  0  0  0  0  0  0  0 10
   15.9976  -13.5971    0.0966 C   0  0  0  0  0  0  0  0  0 11
   18.4667  -13.4657    0.2458 C   0  0  0  0  0  0  0  0  0 12
   18.4986  -12.2303    0.2233 O   0  0  0  0  0  0  0  0  0 13
   19.6517  -14.1898    0.3330 O   0  0  0  0  0  0  0  0  0 14
   13.1382  -11.9004   -0.1128 C   0  0  0  0  0  0  0  0  0 15
   10.5377  -15.5418   -0.2006 H   0  0  0  0  0  0  0  0  0 16
   17.6960  -16.2088    0.2528 H   0  0  0  0  0  0  0  0  0 17
   19.4503  -15.1568    0.3398 H   0  0  0  0  0  0  0  0  0 18
   13.6190  -17.2790   -0.8587 H   0  0  0  0  0  0  0  0  0 19
   12.0249  -17.6203   -0.0683 H   0  0  0  0  0  0  0  0  0 20
   13.5103  -17.2443    0.8983 H   0  0  0  0  0  0  0  0  0 21
   15.8035  -12.5602    0.0641 H   0  0  0  0  0  0  0  0  0 22
   13.8293  -11.7527   -0.9552 H   0  0  0  0  0  0  0  0  0 23
   13.7211  -11.7179    0.8015 H   0  0  0  0  0  0  0  0  0 24
   12.2847  -11.2110   -0.1791 H   0  0  0  0  0  0  0  0  0 25
  1  2  1  0  0  0
  2  3  1  0  0  0
  3  4  1  0  0  0
  4  5  2  0  0  0
  5  6  1  0  0  0
  2  6  2  0  0  0
  6  7  1  0  0  0
  7  8  2  0  0  0
  8  9  1  0  0  0
  9 10  1  0  0  0
 10 11  2  0  0  0
  7 11  1  0  0  0
 10 12  1  0  0  0
 12 13  2  0  0  0
 12 14  1  0  0  0
  5 15  1  0  0  0
  3 16  1  0  0  0
  9 17  1  0  0  0
 14 18  1  0  0  0
  1 19  1  0  0  0
  1 20  1  0  0  0
  1 21  1  0  0  0
 11 22  1  0  0  0
 15 23  1  0  0  0
 15 24  1  0  0  0
 15 25  1  0  0  0
M  END
> <Clean Energy>
67.3154

$$$$
