STL420760
  DSViewer          3D                             0

 30 31  0  0  0  0  0  0  0  0999 V2000
   14.5014  -66.7323   -0.5652 C   0  0  0  0  0  0  0  0  0  1
   15.5333  -65.6732   -0.3139 C   0  0  0  0  0  0  0  0  0  2
   16.8373  -65.8578   -0.7993 N   0  0  0  0  0  0  0  0  0  3
   17.7490  -64.9870   -0.6121 C   0  0  0  0  0  0  0  0  0  4
   19.0247  -65.2144   -1.1115 O   0  0  0  0  0  0  0  0  0  5
   17.4818  -63.8044    0.0901 N   0  0  0  0  0  0  0  0  0  6
   16.2674  -63.5774    0.5714 C   0  0  0  0  0  0  0  0  0  7
   16.0277  -62.5356    1.1909 O   0  0  0  0  0  0  0  0  0  8
   15.2282  -64.5648    0.3611 C   0  0  0  0  0  0  0  0  0  9
   13.5906  -64.2803    0.9973 S   0  0  0  0  0  0  0  0  0 10
   13.1888  -65.4259    1.9085 O   0  0  0  0  0  0  0  0  0 11
   13.5520  -62.9771    1.7725 O   0  0  0  0  0  0  0  0  0 12
   12.4872  -64.2055   -0.3069 N   0  0  0  0  0  0  0  0  0 13
   11.1084  -64.0551   -0.0865 C   0  0  0  0  0  0  0  0  0 14
   10.6166  -63.9529    1.1495 C   0  0  0  0  0  0  0  0  0 15
    9.1761  -63.7967    1.3547 C   0  0  0  0  0  0  0  0  0 16
    8.3538  -63.7560    0.3088 C   0  0  0  0  0  0  0  0  0 17
    8.8897  -63.8676   -1.0465 C   0  0  0  0  0  0  0  0  0 18
   10.1998  -64.0098   -1.2354 C   0  0  0  0  0  0  0  0  0 19
   10.6866  -64.1120   -2.4800 F   0  0  0  0  0  0  0  0  0 20
   14.1207  -67.0907    0.4014 H   0  0  0  0  0  0  0  0  0 21
   14.9251  -67.5610   -1.1498 H   0  0  0  0  0  0  0  0  0 22
   13.6462  -66.2788   -1.0865 H   0  0  0  0  0  0  0  0  0 23
   19.0442  -66.0872   -1.5770 H   0  0  0  0  0  0  0  0  0 24
   18.2033  -63.1349    0.2276 H   0  0  0  0  0  0  0  0  0 25
   12.8288  -64.2686   -1.2376 H   0  0  0  0  0  0  0  0  0 26
   11.2636  -63.9837    1.9859 H   0  0  0  0  0  0  0  0  0 27
    8.7870  -63.7156    2.3378 H   0  0  0  0  0  0  0  0  0 28
    7.3100  -63.6428    0.4589 H   0  0  0  0  0  0  0  0  0 29
    8.2347  -63.8353   -1.8800 H   0  0  0  0  0  0  0  0  0 30
  1  2  1  0  0  0
  2  3  1  0  0  0
  3  4  2  0  0  0
  4  5  1  0  0  0
  4  6  1  0  0  0
  6  7  1  0  0  0
  7  8  2  0  0  0
  7  9  1  0  0  0
  2  9  2  0  0  0
  9 10  1  0  0  0
 10 11  2  0  0  0
 10 12  2  0  0  0
 10 13  1  0  0  0
 13 14  1  0  0  0
 14 15  2  0  0  0
 15 16  1  0  0  0
 16 17  2  0  0  0
 17 18  1  0  0  0
 18 19  2  0  0  0
 14 19  1  0  0  0
 19 20  1  0  0  0
  1 21  1  0  0  0
  1 22  1  0  0  0
  1 23  1  0  0  0
  5 24  1  0  0  0
  6 25  1  0  0  0
 13 26  1  0  0  0
 15 27  1  0  0  0
 16 28  1  0  0  0
 17 29  1  0  0  0
 18 30  1  0  0  0
M  END
> <Clean Energy>
15.2218

$$$$
